data_functionalizedCrystal
_audit_creation_method	'MofGen! by Chris Wilmer'
_symmetry_space_group_name_H-M	'P1'
_symmetry_Int_Tables_number	1
_symmetry_cell_setting	triclinic
loop_
_symmetry_equiv_pos_as_xyz
  x,y,z
_cell_length_a	9.065218
_cell_length_b	10.489741
_cell_length_c	7.540329
_cell_angle_alpha	89.996684
_cell_angle_beta	89.996962
_cell_angle_gamma	84.777530
loop_
_atom_site_label
_atom_site_type_symbol
_atom_site_fract_x
_atom_site_fract_y
_atom_site_fract_z
O1	O	1.959495	0.187043	-0.147486
O2	O	1.530136	0.202385	-0.147489
O3	O	1.754585	0.009151	-0.147477
O4	O	1.735045	0.380277	-0.147498
O5	O	1.754572	0.009149	0.147488
O6	O	1.530122	0.202382	0.147477
O7	O	1.959481	0.187040	0.147479
Cu8	Cu	1.744800	0.194711	0.174410
Cu9	Cu	1.744816	0.194714	-0.174420
O10	O	1.735032	0.380274	0.147467
C11	C	1.475149	0.200909	-0.000006
C12	C	1.311328	0.196501	-0.000007
C13	C	1.753102	-0.038387	0.000005
C14	C	1.748687	-0.180032	0.000002
C15	C	1.605877	-0.248688	-0.000012
C16	C	1.673332	-0.340568	0.145421
C17	C	1.673379	-0.340540	-0.145391
C18	C	1.816202	-0.270047	0.145555
C19	C	1.816229	-0.270009	-0.145388
C20	C	1.883788	-0.361862	0.000081
C21	C	2.014467	0.188516	-0.000007
C22	C	2.178289	0.192925	-0.000018
C23	C	1.736514	0.427812	-0.000018
C24	C	1.740930	0.569458	-0.000027
N25	N	1.744800	0.194708	0.419759
N26	N	1.744828	0.194707	-0.419768
H27	H	1.612900	-0.371799	0.268374
H28	H	1.612941	-0.371721	-0.268355
H29	H	1.876570	-0.238998	0.268646
C30	C	1.449205	-0.183280	0.000267
C31	C	1.347632	-0.276151	0.001985
C32	C	1.203298	-0.215945	0.002277
H33	H	1.434264	-0.131927	-0.103065
H34	H	1.435130	-0.130808	0.102660
H35	H	1.361700	-0.328602	-0.100398
H36	H	1.362524	-0.327510	0.105310
H37	H	1.189223	-0.163473	0.104670
H38	H	1.188373	-0.164594	-0.101057
H39	H	1.134363	-0.278948	0.003459
C40	C	2.040517	-0.427144	0.000547
C41	C	2.114573	-0.391389	0.153091
C42	C	2.258943	-0.451518	0.153602
H43	H	2.091815	-0.401965	-0.101664
H44	H	2.036914	-0.517375	-0.000339
H45	H	2.118183	-0.301177	0.153961
H46	H	2.063320	-0.416569	0.255327
H47	H	2.255340	-0.541749	0.152716
H48	H	2.310226	-0.426334	0.051384
H49	H	2.309203	-0.427276	0.257108
C50	C	1.896510	-0.228105	-0.309392
C51	C	1.800967	-0.143063	-0.408199
C52	C	1.874863	-0.104417	-0.559293
H53	H	1.927062	-0.300889	-0.379711
H54	H	1.980889	-0.186768	-0.274536
H55	H	1.716616	-0.184401	-0.443058
H56	H	1.770410	-0.070260	-0.337933
H57	H	1.959242	-0.063080	-0.524436
H58	H	1.905412	-0.177208	-0.629596
H59	H	1.810053	-0.046704	-0.626343
