data_functionalizedCrystal
_audit_creation_method	'MofGen! by Chris Wilmer'
_symmetry_space_group_name_H-M	'P1'
_symmetry_Int_Tables_number	1
_symmetry_cell_setting	triclinic
loop_
_symmetry_equiv_pos_as_xyz
  x,y,z
_cell_length_a	19.077105
_cell_length_b	16.625546
_cell_length_c	19.077237
_cell_angle_alpha	92.269570
_cell_angle_beta	85.486555
_cell_angle_gamma	87.718759
loop_
_atom_site_label
_atom_site_type_symbol
_atom_site_fract_x
_atom_site_fract_y
_atom_site_fract_z
Zn1	Zn	1.093696	-0.391756	-0.441830
Zn2	Zn	1.343696	-0.141756	-0.191830
Zn3	Zn	1.593696	0.108244	0.058170
Zn4	Zn	1.843696	0.358244	0.308170
Zn5	Zn	1.088891	-0.520951	-0.323939
Zn6	Zn	1.338891	-0.270951	-0.073939
Zn7	Zn	1.588891	-0.020951	0.176061
Zn8	Zn	1.838891	0.229049	0.426061
Zn9	Zn	0.971087	-0.380489	-0.319228
Zn10	Zn	1.221087	-0.130489	-0.069228
Zn11	Zn	1.471087	0.119511	0.180772
Zn12	Zn	1.721087	0.369511	0.430772
Zn13	Zn	0.975779	-0.520895	-0.437056
Zn14	Zn	1.225779	-0.270895	-0.187056
Zn15	Zn	1.475779	-0.020895	0.062944
Zn16	Zn	1.725779	0.229105	0.312944
O17	O	1.032363	-0.453523	-0.380513
O18	O	1.282363	-0.203523	-0.130513
O19	O	1.532363	0.046477	0.119487
O20	O	1.782363	0.296477	0.369487
O21	O	1.191709	-0.413633	-0.430160
O22	O	1.441709	-0.163633	-0.180160
O23	O	1.691709	0.086367	0.069840
O24	O	1.941709	0.336367	0.319840
O25	O	1.069289	-0.497627	-0.224666
O26	O	1.319289	-0.247627	0.025334
O27	O	1.569289	0.002373	0.275334
O28	O	1.819289	0.252373	0.525334
O29	O	0.987398	-0.269154	-0.335518
O30	O	1.237398	-0.019154	-0.085518
O31	O	1.487398	0.230846	0.164482
O32	O	1.737398	0.480846	0.414482
O33	O	1.188178	-0.508552	-0.343547
O34	O	1.438178	-0.258552	-0.093547
O35	O	1.688178	-0.008552	0.156453
O36	O	1.938178	0.241448	0.406453
O37	O	1.077479	-0.277432	-0.425592
O38	O	1.327479	-0.027432	-0.175592
O39	O	1.577479	0.222568	0.074408
O40	O	1.827479	0.472568	0.324408
O41	O	0.982739	-0.394430	-0.221204
O42	O	1.232739	-0.144430	0.028796
O43	O	1.482739	0.105570	0.278796
O44	O	1.732739	0.355570	0.528796
O45	O	0.873059	-0.394375	-0.330889
O46	O	1.123059	-0.144375	-0.080889
O47	O	1.373059	0.105625	0.169111
O48	O	1.623059	0.355625	0.419111
O49	O	0.995396	-0.508456	-0.536338
O50	O	1.245396	-0.258456	-0.286338
O51	O	1.495396	-0.008456	-0.036338
O52	O	1.745396	0.241544	0.213662
O53	O	0.876506	-0.497531	-0.417457
O54	O	1.126506	-0.247531	-0.167457
O55	O	1.376506	0.002469	0.082543
O56	O	1.626506	0.252469	0.332543
O57	O	1.082029	-0.413579	-0.539845
O58	O	1.332029	-0.163579	-0.289845
O59	O	1.582029	0.086421	-0.039845
O60	O	1.832029	0.336421	0.210155
O61	O	1.073839	-0.633773	-0.338919
O62	O	1.323839	-0.383773	-0.088919
O63	O	1.573839	-0.133773	0.161081
O64	O	1.823839	0.116227	0.411081
O65	O	0.990736	-0.633731	-0.422025
O66	O	1.240736	-0.383731	-0.172025
O67	O	1.490736	-0.133731	0.077975
O68	O	1.740736	0.116269	0.327975
C69	C	0.849204	-0.444725	-0.373144
C70	C	1.099204	-0.194725	-0.123144
C71	C	1.349204	0.055275	0.126856
C72	C	1.599204	0.305275	0.376856
C73	C	0.770848	-0.440981	-0.370009
C74	C	1.020848	-0.190981	-0.120009
C75	C	1.270848	0.059019	0.129991
C76	C	1.520848	0.309019	0.379991
C77	C	0.735847	-0.493004	-0.413536
C78	C	0.985847	-0.243004	-0.163536
C79	C	1.235847	0.006996	0.086464
C80	C	1.485847	0.256996	0.336464
C81	C	0.662224	-0.489476	-0.410593
C82	C	0.912224	-0.239476	-0.160593
C83	C	1.162224	0.010524	0.089407
C84	C	1.412224	0.260524	0.339407
C85	C	0.623603	-0.433928	-0.364119
C86	C	0.873603	-0.183928	-0.114119
C87	C	1.123603	0.066072	0.135881
C88	C	1.373603	0.316072	0.385881
C89	C	0.658609	-0.381900	-0.320590
C90	C	0.908609	-0.131900	-0.070590
C91	C	1.158609	0.118100	0.179410
C92	C	1.408609	0.368100	0.429410
C93	C	0.732231	-0.385424	-0.323537
C94	C	0.982231	-0.135424	-0.073537
C95	C	1.232231	0.114576	0.176463
C96	C	1.482231	0.364576	0.426463
C97	C	0.403222	-0.417616	-0.350482
C98	C	0.653222	-0.167616	-0.100482
C99	C	0.903222	0.082384	0.149518
C100	C	1.153222	0.332384	0.399518
C101	C	0.329595	-0.414097	-0.347537
C102	C	0.579595	-0.164097	-0.097537
C103	C	0.829595	0.085903	0.152463
C104	C	1.079595	0.335903	0.402463
C105	C	0.333215	-0.521673	-0.437541
C106	C	0.583215	-0.271673	-0.187541
C107	C	0.833215	-0.021673	0.062459
C108	C	1.083215	0.228327	0.312459
C109	C	0.406838	-0.525196	-0.440481
C110	C	0.656838	-0.275196	-0.190481
C111	C	0.906838	-0.025196	0.059519
C112	C	1.156838	0.224804	0.309519
C113	C	0.441838	-0.473164	-0.396955
C114	C	0.691838	-0.223164	-0.146955
C115	C	0.941838	0.026836	0.103045
C116	C	1.191838	0.276836	0.353045
N117	N	0.548348	-0.430323	-0.361108
N118	N	0.798348	-0.180323	-0.111108
N119	N	1.048348	0.069677	0.138892
N120	N	1.298348	0.319677	0.388892
N121	N	0.517092	-0.476767	-0.399970
N122	N	0.767092	-0.226767	-0.149970
N123	N	1.017092	0.023233	0.100030
N124	N	1.267092	0.273233	0.350030
C125	C	1.032295	-0.663009	-0.380481
C126	C	1.282295	-0.413009	-0.130481
C127	C	1.532295	-0.163009	0.119519
C128	C	1.782295	0.086991	0.369519
C129	C	1.032332	-0.752632	-0.380494
C130	C	1.282332	-0.502632	-0.130494
C131	C	1.532332	-0.252632	0.119506
C132	C	1.782332	-0.002632	0.369506
C133	C	1.032457	-1.080817	-0.380572
C134	C	1.282457	-0.830817	-0.130572
C135	C	1.532457	-0.580817	0.119428
C136	C	1.782457	-0.330817	0.369428
C137	C	1.032420	-0.989506	-0.380552
C138	C	1.282420	-0.739506	-0.130552
C139	C	1.532420	-0.489506	0.119448
C140	C	1.782420	-0.239506	0.369448
C141	C	1.032394	-0.916728	-0.380532
C142	C	1.282394	-0.666728	-0.130532
C143	C	1.532394	-0.416728	0.119468
C144	C	1.782394	-0.166728	0.369468
C145	C	1.032358	-0.825411	-0.380513
C146	C	1.282358	-0.575411	-0.130513
C147	C	1.532358	-0.325411	0.119487
C148	C	1.782358	-0.075411	0.369487
C149	C	1.216237	-0.462356	-0.387912
C150	C	1.466237	-0.212356	-0.137912
C151	C	1.716237	0.037644	0.112088
C152	C	1.966237	0.287644	0.362088
C153	C	1.294594	-0.466120	-0.391064
C154	C	1.544594	-0.216120	-0.141064
C155	C	1.794594	0.033880	0.108936
C156	C	2.044594	0.283880	0.358936
C157	C	1.039772	-0.462268	-0.564385
C158	C	1.289772	-0.212268	-0.314385
C159	C	1.539772	0.037732	-0.064385
C160	C	1.789772	0.287732	0.185615
C161	C	1.042929	-0.465995	-0.642741
C162	C	1.292929	-0.215995	-0.392741
C163	C	1.542929	0.034005	-0.142741
C164	C	1.792929	0.284005	0.107259
C165	C	1.032451	-0.243220	-0.380562
C166	C	1.282451	0.006780	-0.130562
C167	C	1.532451	0.256780	0.119438
C168	C	1.782451	0.506780	0.369438
C169	C	1.032489	-0.153602	-0.380583
C170	C	1.282489	0.096398	-0.130583
C171	C	1.532489	0.346398	0.119417
C172	C	1.782489	0.596398	0.369417
C173	C	1.065576	-0.492783	-1.083993
C174	C	1.315576	-0.242783	-0.833993
C175	C	1.565576	0.007217	-0.583993
C176	C	1.815576	0.257217	-0.333993
C177	C	1.062599	-0.489276	-1.010369
C178	C	1.312599	-0.239276	-0.760369
C179	C	1.562599	0.010724	-0.510369
C180	C	1.812599	0.260724	-0.260369
C181	C	1.016053	-0.433789	-0.971763
C182	C	1.266053	-0.183789	-0.721763
C183	C	1.516053	0.066211	-0.471763
C184	C	1.766053	0.316211	-0.221763
C185	C	0.972476	-0.381812	-1.006784
C186	C	1.222476	-0.131812	-0.756784
C187	C	1.472476	0.118188	-0.506784
C188	C	1.722476	0.368188	-0.256784
C189	C	0.975450	-0.385324	-1.080407
C190	C	1.225450	-0.135324	-0.830407
C191	C	1.475450	0.114676	-0.580407
C192	C	1.725450	0.364676	-0.330407
C193	C	1.002325	-0.417529	-0.751384
C194	C	1.252325	-0.167529	-0.501384
C195	C	1.502325	0.082471	-0.251384
C196	C	1.752325	0.332471	-0.001384
C197	C	0.999356	-0.414020	-0.677757
C198	C	1.249356	-0.164020	-0.427757
C199	C	1.499356	0.085980	-0.177757
C200	C	1.749356	0.335980	0.072243
C201	C	1.089479	-0.521485	-0.681347
C202	C	1.339479	-0.271485	-0.431347
C203	C	1.589479	-0.021485	-0.181347
C204	C	1.839479	0.228515	0.068653
C205	C	1.092451	-0.524988	-0.754970
C206	C	1.342451	-0.274988	-0.504970
C207	C	1.592451	-0.024988	-0.254970
C208	C	1.842451	0.225012	-0.004970
C209	C	1.048872	-0.473014	-0.789985
C210	C	1.298872	-0.223014	-0.539985
C211	C	1.548872	0.026986	-0.289985
C212	C	1.798872	0.276986	-0.039985
N213	N	1.013011	-0.430202	-0.896508
N214	N	1.263011	-0.180202	-0.646508
N215	N	1.513011	0.069798	-0.396508
N216	N	1.763011	0.319798	-0.146508
N217	N	1.051911	-0.476606	-0.865238
N218	N	1.301911	-0.226606	-0.615238
N219	N	1.551911	0.023394	-0.365238
N220	N	1.801911	0.273394	-0.115238
C221	C	1.025024	-0.444755	-0.197358
C222	C	1.275024	-0.194755	0.052642
C223	C	1.525024	0.055245	0.302642
C224	C	1.775024	0.305245	0.552642
C225	C	1.022004	-0.440808	-0.119009
C226	C	1.272004	-0.190808	0.130991
C227	C	1.522004	0.059192	0.380991
C228	C	1.772004	0.309192	0.630991
H229	H	0.760728	-0.343057	-0.288096
H230	H	1.010728	-0.093057	-0.038096
H231	H	1.260728	0.156943	0.211904
H232	H	1.510728	0.406943	0.461904
F233	F	1.135856	-0.576796	-0.644076
F234	F	1.385856	-0.326796	-0.394076
F235	F	1.635856	-0.076796	-0.144076
F236	F	1.885856	0.173204	0.105924
F237	F	0.929076	-0.330002	-1.117673
F238	F	1.179076	-0.080002	-0.867673
F239	F	1.429076	0.169998	-0.617673
F240	F	1.679076	0.419998	-0.367673
H241	H	0.934574	-0.336638	-0.975346
H242	H	1.184574	-0.086638	-0.725346
H243	H	1.434574	0.163362	-0.475346
H244	H	1.684574	0.413362	-0.225346
F245	F	0.624976	-0.544847	-0.456921
F246	F	0.874976	-0.294847	-0.206921
F247	F	1.124976	-0.044847	0.043079
F248	F	1.374976	0.205153	0.293079
H249	H	0.767287	-0.538240	-0.451378
H250	H	1.017287	-0.288240	-0.201378
H251	H	1.267287	-0.038240	0.048622
H252	H	1.517287	0.211760	0.298622
H253	H	0.438278	-0.570431	-0.478324
H254	H	0.688278	-0.320431	-0.228324
H255	H	0.938278	-0.070431	0.021676
H256	H	1.188278	0.179569	0.271676
H257	H	0.961453	-0.368831	-0.646326
H258	H	1.211453	-0.118831	-0.396326
H259	H	1.461453	0.131169	-0.146326
H260	H	1.711453	0.381169	0.103674
H261	H	1.103483	-0.537962	-1.115421
H262	H	1.353483	-0.287962	-0.865421
H263	H	1.603483	-0.037962	-0.615421
H264	H	1.853483	0.212038	-0.365421
F265	F	0.440462	-0.362237	-0.304159
F266	F	0.690462	-0.112237	-0.054159
F267	F	0.940462	0.137763	0.195841
F268	F	1.190462	0.387763	0.445841
H269	H	0.304710	-0.564033	-0.472979
H270	H	0.554710	-0.314033	-0.222979
H271	H	0.804710	-0.064033	0.027021
H272	H	1.054710	0.185967	0.277021
F273	F	0.288493	-0.354977	-0.298066
F274	F	0.538493	-0.104977	-0.048066
F275	F	0.788493	0.145023	0.201934
F276	F	1.038493	0.395023	0.451934
F277	F	0.617504	-0.322776	-0.271133
F278	F	0.867504	-0.072776	-0.021133
F279	F	1.117504	0.177224	0.228867
F280	F	1.367504	0.427224	0.478867
H281	H	1.098072	-0.531609	-0.981862
H282	H	1.348072	-0.281609	-0.731862
H283	H	1.598072	-0.031609	-0.481862
H284	H	1.848072	0.218391	-0.231862
F285	F	0.955918	-0.362241	-0.788639
F286	F	1.205918	-0.112241	-0.538639
F287	F	1.455918	0.137759	-0.288639
F288	F	1.705918	0.387759	-0.038639
H289	H	1.130354	-0.570172	-0.786398
H290	H	1.380354	-0.320172	-0.536398
H291	H	1.630354	-0.070172	-0.286398
H292	H	1.880354	0.179828	-0.036398
