data_functionalizedCrystal
_audit_creation_method	'MofGen! by Chris Wilmer'
_symmetry_space_group_name_H-M	'P1'
_symmetry_Int_Tables_number	1
_symmetry_cell_setting	triclinic
loop_
_symmetry_equiv_pos_as_xyz
  x,y,z
_cell_length_a	6.817900
_cell_length_b	16.418049
_cell_length_c	19.453046
_cell_angle_alpha	95.885381
_cell_angle_beta	101.708137
_cell_angle_gamma	103.389670
loop_
_atom_site_label
_atom_site_type_symbol
_atom_site_fract_x
_atom_site_fract_y
_atom_site_fract_z
V1	V	-4.006363	-0.116777	-0.219250
O2	O	-3.994759	0.004695	-0.214822
O3	O	-3.957544	-0.230669	-0.217996
O4	O	-3.949283	-0.115383	-0.314761
O5	O	-4.003078	-0.111388	-0.117387
V6	V	-4.491170	-0.102200	-0.207037
O7	O	-4.264805	-0.148753	-0.246042
O8	O	-4.682925	-0.070224	-0.180246
O9	O	-4.316782	0.011691	-0.208292
O10	O	-4.620171	-0.223673	-0.211465
O11	O	-4.611852	-0.107590	-0.308901
O12	O	-4.325044	-0.103595	-0.111526
C13	C	-3.802724	-0.258421	-0.214600
C14	C	-3.844038	-0.351531	-0.214211
C15	C	-3.792185	-0.111361	-0.338033
C16	C	-3.826796	-0.110975	-0.416116
C17	C	-4.120831	-0.570031	-0.216842
C18	C	-4.159638	-0.657519	-0.216482
C19	C	-3.796060	-0.648946	-0.209450
C20	C	-3.757259	-0.561461	-0.209815
C21	C	-3.919649	-0.522005	-0.213507
C22	C	-3.997257	-0.696978	-0.212783
C23	C	-4.039332	-0.791836	-0.212393
C24	C	-3.877574	-0.427141	-0.213898
C25	C	-4.112850	-0.184929	-0.983689
C26	C	-4.080317	-0.185298	-0.910323
C27	C	-4.025084	-0.108736	-0.863438
C28	C	-4.002333	-0.031799	-0.889923
C29	C	-4.034847	-0.031431	-0.963288
N30	N	-4.058523	-0.054806	-0.742896
N31	N	-4.027644	-0.055160	-0.673204
C32	C	-3.927116	-0.109839	-0.642394
N33	N	-3.858666	-0.164163	-0.683911
N34	N	-3.889559	-0.163811	-0.753610
C35	C	-3.989823	-0.109126	-0.783885
C36	C	-3.914578	-0.187172	-0.536364
C37	C	-3.882030	-0.187537	-0.462996
C38	C	-3.804066	-0.034036	-0.442598
C39	C	-3.836595	-0.033672	-0.515965
C40	C	-3.891859	-0.110243	-0.562844
C41	C	-4.134945	0.039438	-0.211685
C42	C	-4.072869	0.132548	-0.212079
C43	C	-4.145484	-0.107619	-0.088250
C44	C	-4.090112	-0.108001	-0.010167
H45	H	-4.253062	-0.537909	-0.219848
H46	H	-3.900539	-0.250183	-0.441440
F47	F	-4.373762	-0.708628	-0.220034
H48	H	-3.663851	-0.681082	-0.206442
F49	F	-3.543125	-0.510346	-0.206269
F50	F	-4.171655	-0.266422	-1.033577
F51	F	-3.745268	0.047448	-0.392704
F52	F	-3.812402	0.048205	-0.544146
H53	H	-3.959559	-0.249519	-0.574535
F54	F	-4.104509	-0.267178	-0.882135
H55	H	-3.957354	0.030538	-0.851745
H56	H	-4.016333	0.031214	-0.984845
