data_functionalizedCrystal
_audit_creation_method	'MofGen! by Chris Wilmer'
_symmetry_space_group_name_H-M	'P1'
_symmetry_Int_Tables_number	1
_symmetry_cell_setting	triclinic
loop_
_symmetry_equiv_pos_as_xyz
  x,y,z
_cell_length_a	12.996460
_cell_length_b	9.065218
_cell_length_c	9.065215
_cell_angle_alpha	94.984709
_cell_angle_beta	90.005164
_cell_angle_gamma	89.994367
loop_
_atom_site_label
_atom_site_type_symbol
_atom_site_fract_x
_atom_site_fract_y
_atom_site_fract_z
O1	O	0.085567	-1.960401	0.216360
O2	O	0.418901	-1.627068	0.549693
O3	O	0.752234	-1.293735	0.883027
O4	O	0.085568	-1.531116	0.234106
O5	O	0.418902	-1.197783	0.567440
O6	O	0.752235	-0.864450	0.900773
O7	O	0.085563	-1.754634	0.010590
O8	O	0.418897	-1.421301	0.343924
O9	O	0.752230	-1.087968	0.677257
O10	O	0.085572	-1.736883	0.439876
O11	O	0.418906	-1.403550	0.773209
O12	O	0.752239	-1.070217	1.106542
O13	O	-0.085570	-1.754611	0.010578
O14	O	0.247763	-1.421277	0.343911
O15	O	0.581096	-1.087944	0.677244
O16	O	-0.085565	-1.531093	0.234094
O17	O	0.247768	-1.197759	0.567427
O18	O	0.581101	-0.864426	0.900760
O19	O	-0.085567	-1.960378	0.216347
O20	O	0.247767	-1.627044	0.549680
O21	O	0.581100	-1.293711	0.883014
Cu22	Cu	-0.101192	-1.745733	0.225219
Cu23	Cu	0.232142	-1.412400	0.558552
Cu24	Cu	0.565475	-1.079066	0.891886
Cu25	Cu	0.101194	-1.745761	0.225234
Cu26	Cu	0.434527	-1.412428	0.558568
Cu27	Cu	0.767860	-1.079094	0.891901
O28	O	-0.085562	-1.736860	0.439863
O29	O	0.247772	-1.403526	0.773196
O30	O	0.581105	-1.070193	1.106530
C31	C	0.000002	-1.476118	0.232394
C32	C	0.333335	-1.142785	0.565728
C33	C	0.666668	-0.809451	0.899061
C34	C	0.000002	-1.312275	0.227295
C35	C	0.333336	-0.978942	0.560628
C36	C	0.666669	-0.645608	0.893961
N37	N	-0.243539	-1.745724	0.225208
N38	N	0.089794	-1.412391	0.558541
N39	N	0.423128	-1.079057	0.891874
C40	C	-0.000002	-1.752917	-0.044403
C41	C	0.333331	-1.419584	0.288931
C42	C	0.666664	-1.086251	0.622264
C43	C	0.000001	-1.747819	-0.208246
C44	C	0.333334	-1.414486	0.125088
C45	C	0.666667	-1.081153	0.458421
C46	C	-0.663353	-1.745759	0.225236
C47	C	-0.330020	-1.412426	0.558569
C48	C	0.003313	-1.079092	0.891902
C49	C	-0.546548	-1.745745	0.225233
C50	C	-0.213215	-1.412412	0.558566
C51	C	0.120119	-1.079078	0.891900
C52	C	-0.453450	-1.745742	0.225223
C53	C	-0.120116	-1.412409	0.558556
C54	C	0.213217	-1.079075	0.891890
C55	C	-0.336637	-1.745727	0.225218
C56	C	-0.003304	-1.412393	0.558551
C57	C	0.330029	-1.079060	0.891884
N58	N	0.243541	-1.745782	0.225234
N59	N	0.576874	-1.412448	0.558568
N60	N	0.910207	-1.079115	0.891901
C61	C	0.000002	-2.015376	0.218059
C62	C	0.333336	-1.682043	0.551392
C63	C	0.666669	-1.348709	0.884726
C64	C	0.000009	-2.179219	0.223159
C65	C	0.333342	-1.845886	0.556492
C66	C	0.666675	-1.512552	0.889825
C67	C	0.000007	-1.738576	0.494856
C68	C	0.333340	-1.405243	0.828189
C69	C	0.666673	-1.071910	1.161523
C70	C	0.000010	-1.743674	0.658699
C71	C	0.333343	-1.410341	0.992033
C72	C	0.666677	-1.077008	1.325366
