data_functionalizedCrystal
_audit_creation_method	'MofGen! by Chris Wilmer'
_symmetry_space_group_name_H-M	'P1'
_symmetry_Int_Tables_number	1
_symmetry_cell_setting	triclinic
loop_
_symmetry_equiv_pos_as_xyz
  x,y,z
_cell_length_a	12.759401
_cell_length_b	10.685194
_cell_length_c	12.759393
_cell_angle_alpha	85.597731
_cell_angle_beta	89.980324
_cell_angle_gamma	94.377657
loop_
_atom_site_label
_atom_site_type_symbol
_atom_site_fract_x
_atom_site_fract_y
_atom_site_fract_z
Zn1	Zn	1.574255	-0.502338	-0.561906
Zn2	Zn	1.560697	-0.713404	-0.372747
Zn3	Zn	1.398550	-0.502401	-0.386241
Zn4	Zn	1.385102	-0.713312	-0.548394
O5	O	1.479651	-0.607864	-0.467322
O6	O	1.719477	-0.530348	-0.536821
O7	O	1.539141	-0.685479	-0.227512
O8	O	1.433160	-0.325794	-0.420845
O9	O	1.709515	-0.685418	-0.397847
O10	O	1.562250	-0.325747	-0.549905
O11	O	1.420013	-0.530456	-0.237426
O12	O	1.249746	-0.530367	-0.407743
O13	O	1.410240	-0.685261	-0.697212
O14	O	1.239866	-0.685322	-0.526877
O15	O	1.549210	-0.530259	-0.707139
O16	O	1.526101	-0.889990	-0.384746
O17	O	1.397092	-0.889923	-0.513793
C18	C	1.206685	-0.607842	-0.467309
C19	C	1.089907	-0.607863	-0.467326
C20	C	1.040223	-0.527264	-0.539784
C21	C	0.930499	-0.527277	-0.539790
C22	C	0.920150	-0.688498	-0.394877
C23	C	1.029873	-0.688478	-0.394866
C24	C	0.790058	-0.378526	-0.587058
C25	C	0.740370	-0.297938	-0.659531
C26	C	0.777254	-0.278704	-0.763298
C27	C	0.863824	-0.340076	-0.794611
C28	C	0.913505	-0.420673	-0.722142
C29	C	0.876624	-0.439883	-0.618362
C30	C	1.170316	-0.837231	-0.347610
C31	C	1.219999	-0.917835	-0.275145
C32	C	1.183116	-0.937082	-0.171375
C33	C	1.096542	-0.875732	-0.140065
C34	C	1.046859	-0.795128	-0.212530
C35	C	1.083749	-0.775879	-0.316298
C36	C	1.458695	-0.935747	-0.446362
C37	C	1.449826	-1.076016	-0.437430
C38	C	1.753683	-0.607886	-0.467336
C39	C	1.870459	-0.607896	-0.467342
C40	C	1.479737	-0.607742	-0.741363
C41	C	1.479774	-0.607691	-0.858143
C42	C	1.500718	-0.278700	-0.488387
C43	C	1.509695	-0.138430	-0.497364
C44	C	1.552142	-0.526969	-0.918177
C45	C	1.552163	-0.526914	-1.027904
C46	C	1.407445	-0.688315	-1.017555
C47	C	1.407420	-0.688362	-0.907830
C48	C	1.599263	-0.378021	-1.187390
C49	C	1.671646	-0.297310	-1.247426
C50	C	1.775392	-0.277960	-1.213068
C51	C	1.806774	-0.339341	-1.118674
C52	C	1.734396	-0.420061	-1.058643
C53	C	1.630637	-0.439387	-1.093001
C54	C	1.360331	-0.837257	-0.748342
C55	C	1.287956	-0.917985	-0.688308
C56	C	1.184208	-0.937347	-0.722663
C57	C	1.152828	-0.875989	-0.817059
C58	C	1.225203	-0.795261	-0.877093
C59	C	1.328950	-0.775897	-0.842731
C60	C	1.479631	-0.607893	-0.194353
C61	C	1.479821	-0.607589	-0.077596
H62	H	0.983992	-0.470635	-0.747635
H63	H	1.391769	-1.129898	-0.379285
H64	H	1.444809	-0.821489	-0.720356
H65	H	1.089100	-0.461618	-0.598782
Br66	Br	1.606440	-1.048639	-0.594291
Br67	Br	1.629060	-0.214015	-1.375529
Br68	Br	1.650334	-0.417484	-0.850748
H69	H	1.759948	-0.470040	-0.981792
Br70	Br	1.085993	-1.046939	-0.641203
Br71	Br	0.740010	-0.404600	-0.446219
Br72	Br	1.947588	-0.313099	-1.072062
H73	H	0.893841	-0.324420	-0.879112
H74	H	1.834327	-0.212243	-1.261958
H75	H	1.514784	-0.393758	-1.215369
Br76	Br	1.309259	-0.797797	-1.084993
Br77	Br	1.012025	-0.902271	-0.863695
H78	H	0.976365	-0.745174	-0.187028
H79	H	0.736791	-0.213087	-0.822307
H80	H	1.066506	-0.891410	-0.055569
Br81	Br	1.337488	-1.001108	-0.317641
H82	H	1.199645	-0.745301	-0.953956
H83	H	1.200361	-0.821556	-0.432105
Br84	Br	0.622869	-0.214679	-0.617045
H85	H	0.871257	-0.754133	-0.335884
Br86	Br	1.250533	-1.046495	-0.073035
H87	H	1.313518	-0.967957	-0.611452
