data_functionalizedCrystal
_audit_creation_method	'MofGen! by Chris Wilmer'
_symmetry_space_group_name_H-M	'P1'
_symmetry_Int_Tables_number	1
_symmetry_cell_setting	triclinic
loop_
_symmetry_equiv_pos_as_xyz
  x,y,z
_cell_length_a	23.532407
_cell_length_b	10.908937
_cell_length_c	10.066280
_cell_angle_alpha	101.427019
_cell_angle_beta	80.126003
_cell_angle_gamma	108.532684
loop_
_atom_site_label
_atom_site_type_symbol
_atom_site_fract_x
_atom_site_fract_y
_atom_site_fract_z
O1	O	-0.093926	-1.688223	0.113506
O2	O	0.406074	-1.188223	0.613506
O3	O	-0.049402	-1.313794	0.113509
O4	O	0.450598	-0.813794	0.613509
O5	O	-0.155635	-1.512303	0.113482
O6	O	0.344365	-1.012303	0.613482
O7	O	0.012308	-1.489714	0.113533
O8	O	0.512308	-0.989714	0.613533
O9	O	-0.143904	-1.545758	-0.113487
O10	O	0.356096	-1.045758	0.386513
O11	O	-0.037670	-1.347249	-0.113461
O12	O	0.462330	-0.847249	0.386539
O13	O	-0.082194	-1.721678	-0.113464
O14	O	0.417806	-1.221678	0.386536
Zn15	Zn	-0.058070	-1.539776	-0.149498
Zn16	Zn	0.441930	-1.039776	0.350502
Zn17	Zn	-0.073526	-1.495697	0.149544
Zn18	Zn	0.426474	-0.995697	0.649544
O19	O	0.024039	-1.523169	-0.113437
O20	O	0.524039	-1.023169	0.386563
C21	C	-0.039375	-1.282628	0.000024
C22	C	0.460625	-0.782628	0.500024
C23	C	-0.026983	-1.139918	0.000024
C24	C	0.473017	-0.639918	0.500024
C25	C	-0.170932	-1.528456	-0.000006
C26	C	0.329068	-1.028456	0.499994
C27	C	-0.233989	-1.526729	-0.000016
C28	C	0.266011	-1.026729	0.499984
C29	C	-0.092221	-1.752845	0.000024
C30	C	0.407779	-1.252845	0.500024
C31	C	-0.104613	-1.895553	0.000033
C32	C	0.395387	-1.395553	0.500033
C33	C	-0.642927	-1.633345	0.000058
C34	C	-0.142927	-1.133345	0.500058
C35	C	-0.702180	-1.631738	0.000068
C36	C	-0.202180	-1.131738	0.500068
O37	O	-0.748040	-1.730575	0.000118
O38	O	-0.248040	-1.230575	0.500118
N39	N	-0.713925	-1.513726	0.000068
N40	N	-0.213925	-1.013726	0.500068
C41	C	-0.666415	-1.397313	0.000071
C42	C	-0.166415	-0.897313	0.500071
O43	O	-0.681847	-1.296788	0.000074
O44	O	-0.181847	-0.796788	0.500074
C45	C	-0.607164	-1.398921	0.000071
C46	C	-0.107164	-0.898921	0.500071
C47	C	-0.595422	-1.516942	0.000057
C48	C	-0.095422	-1.016942	0.500057
C49	C	-0.631183	-1.751357	0.000045
C50	C	-0.131183	-1.251357	0.500045
C51	C	-0.571934	-1.752964	0.000032
C52	C	-0.071934	-1.252964	0.500032
C53	C	-0.524429	-1.636560	0.000032
C54	C	-0.024429	-1.136560	0.500032
C55	C	-0.536173	-1.518549	0.000044
C56	C	-0.036173	-1.018549	0.500044
C57	C	-0.559656	-1.282507	0.000084
C58	C	-0.059656	-0.782507	0.500084
C59	C	-0.500402	-1.284125	0.000084
C60	C	-0.000402	-0.784125	0.500084
C61	C	-0.488660	-1.402146	0.000071
C62	C	0.011340	-0.902146	0.500071
C63	C	-0.429419	-1.403753	0.000030
C64	C	0.070581	-0.903753	0.500030
N65	N	-0.417673	-1.521764	0.000030
N66	N	0.082327	-1.021764	0.500030
C67	C	-0.465179	-1.638168	0.000031
C68	C	0.034821	-1.138168	0.500031
C69	C	-0.790847	-1.393946	0.000075
C70	C	-0.290847	-0.893946	0.500075
C71	C	-0.850097	-1.392338	0.000066
C72	C	-0.350097	-0.892338	0.500066
C73	C	-0.885857	-1.626763	0.000065
C74	C	-0.385857	-1.126763	0.500065
C75	C	-0.826606	-1.628371	0.000064
C76	C	-0.326606	-1.128371	0.500064
C77	C	-0.779102	-1.511957	0.000075
C78	C	-0.279102	-1.011957	0.500075
C79	C	-0.340750	-1.641535	0.000003
C80	C	0.159250	-1.141535	0.500003
C81	C	-0.281494	-1.643133	-0.000016
C82	C	0.218506	-1.143133	0.499984
C83	C	-0.245739	-1.408708	-0.000008
C84	C	0.254261	-0.908708	0.499992
C85	C	-0.304990	-1.407110	0.000004
C86	C	0.195010	-0.907110	0.500004
C87	C	-0.352495	-1.523533	0.000014
C88	C	0.147505	-1.023533	0.500014
O89	O	-0.383529	-1.304967	-0.000014
O90	O	0.116471	-0.804967	0.499986
O91	O	-0.449738	-1.738674	0.000047
O92	O	0.050262	-1.238674	0.500047
C93	C	0.039336	-1.507016	0.000054
C94	C	0.539336	-1.007016	0.500054
C95	C	0.102393	-1.508742	0.000074
C96	C	0.602393	-1.008742	0.500074
N97	N	-0.047522	-1.569867	-0.353587
N98	N	0.452478	-1.069867	0.146413
C99	C	-0.059398	-0.943987	0.000039
C100	C	0.440602	-0.443987	0.500039
C101	C	-0.072205	-1.091489	0.000018
C102	C	0.427795	-0.591489	0.500018
C103	C	-0.061743	-1.529333	-0.578553
C104	C	0.438257	-1.029333	-0.078553
C105	C	-0.069862	-1.506141	-0.421399
C106	C	0.430138	-1.006141	0.078601
N107	N	-0.084079	-1.465615	0.353632
N108	N	0.415921	-0.965615	0.853632
H109	H	-0.271939	-1.739244	-0.000031
H110	H	0.228061	-1.239244	0.499969
H111	H	0.021213	-1.072190	0.000048
H112	H	0.521213	-0.572190	0.500048
F113	F	0.003594	-0.855460	0.000079
F114	F	0.503594	-0.355460	0.500079
H115	H	-0.152806	-0.963284	0.000021
H116	H	0.347194	-0.463284	0.500021
H117	H	-0.022382	-1.641583	-0.411866
H118	H	0.477618	-1.141583	0.088134
H119	H	-0.569204	-1.186401	0.000103
H120	H	-0.069204	-0.686401	0.500103
F121	F	-0.135202	-1.180009	0.000001
F122	F	0.364798	-0.680009	0.500001
H123	H	-0.036607	-1.601048	-0.636839
H124	H	0.463393	-1.101048	-0.136839
H125	H	-0.094993	-1.434410	-0.363117
H126	H	0.405007	-0.934410	0.136883
H127	H	-0.379425	-1.736337	0.000016
H128	H	0.120575	-1.236337	0.500016
F129	F	-0.559448	-1.878575	0.000047
F130	F	-0.059448	-1.378575	0.500047
H131	H	-0.109209	-1.393889	-0.588081
H132	H	0.390791	-0.893889	-0.088081
H133	H	-0.817051	-1.724474	0.000054
H134	H	-0.317051	-1.224474	0.500054
F135	F	-0.681736	-1.875261	0.000047
F136	F	-0.181736	-1.375261	0.500047
H137	H	-0.924548	-1.721545	0.000071
H138	H	-0.424548	-1.221545	0.500071
F139	F	-0.862585	-1.266728	0.000056
F140	F	-0.362585	-0.766728	0.500056
H141	H	-0.752169	-1.299144	0.000072
H142	H	-0.252169	-0.799144	0.500072
H143	H	-0.461725	-1.189324	0.000095
H144	H	0.038275	-0.689324	0.500095
F145	F	-0.317486	-1.281504	-0.000006
F146	F	0.182514	-0.781504	0.499994
H147	H	-0.207050	-1.313936	-0.000013
H148	H	0.292950	-0.813936	0.499987
