data_functionalizedCrystal
_audit_creation_method	'MofGen! by Chris Wilmer'
_symmetry_space_group_name_H-M	'P1'
_symmetry_Int_Tables_number	1
_symmetry_cell_setting	triclinic
loop_
_symmetry_equiv_pos_as_xyz
  x,y,z
_cell_length_a	19.077105
_cell_length_b	25.639240
_cell_length_c	19.076919
_cell_angle_alpha	92.261469
_cell_angle_beta	90.076224
_cell_angle_gamma	87.728718
loop_
_atom_site_label
_atom_site_type_symbol
_atom_site_fract_x
_atom_site_fract_y
_atom_site_fract_z
Zn1	Zn	1.058223	-0.252939	-0.440357
Zn2	Zn	1.062848	-0.337004	-0.322829
Zn3	Zn	0.945443	-0.245935	-0.318152
Zn4	Zn	0.940670	-0.336688	-0.435582
O5	O	1.001796	-0.293141	-0.379230
O6	O	1.157168	-0.267153	-0.428722
O7	O	1.051207	-0.322124	-0.223878
O8	O	0.960465	-0.173702	-0.334403
O9	O	1.160566	-0.328915	-0.342375
O10	O	1.043325	-0.178847	-0.424186
O11	O	0.964949	-0.255216	-0.220442
O12	O	0.846478	-0.254910	-0.329773
O13	O	0.952330	-0.328378	-0.534546
O14	O	0.842971	-0.321587	-0.416049
O15	O	1.038697	-0.266848	-0.538054
O16	O	1.046578	-0.410124	-0.337746
O17	O	0.956815	-0.409892	-0.420585
C18	C	0.819229	-0.287455	-0.371886
C19	C	0.741125	-0.285035	-0.368761
C20	C	0.702627	-0.318661	-0.412141
C21	C	0.629240	-0.316381	-0.409208
C22	C	0.594353	-0.280476	-0.362890
C23	C	0.632856	-0.246846	-0.319508
C24	C	0.706241	-0.249124	-0.322445
C25	C	0.375067	-0.269932	-0.349300
C26	C	0.301677	-0.267657	-0.346365
C27	C	0.298066	-0.337192	-0.436066
C28	C	0.371453	-0.339469	-0.438996
C29	C	0.409950	-0.305837	-0.395616
N30	N	0.519340	-0.278145	-0.359890
N31	N	0.484961	-0.308166	-0.398621
C32	C	1.001699	-0.428979	-0.379171
C33	C	1.001721	-0.487094	-0.379172
C34	C	1.044960	-0.850105	-0.426062
C35	C	1.044980	-0.904710	-0.426077
O36	O	1.081628	-0.935193	-0.465884
N37	N	1.001891	-0.929385	-0.379302
C38	C	0.958773	-0.899452	-0.332513
O39	O	0.922123	-0.925454	-0.292729
C40	C	0.958750	-0.844848	-0.332502
C41	C	1.001847	-0.820176	-0.379275
C42	C	1.088053	-0.825433	-0.472833
C43	C	1.088034	-0.770831	-0.472816
C44	C	1.044921	-0.740902	-0.426030
C45	C	1.001828	-0.765574	-0.379259
C46	C	0.915629	-0.814915	-0.285717
C47	C	0.915609	-0.760308	-0.285710
C48	C	0.958706	-0.735636	-0.332484
C49	C	0.958696	-0.681043	-0.332456
N50	N	1.001785	-0.656368	-0.379232
C51	C	1.044898	-0.686297	-0.426019
C52	C	0.958824	-1.014125	-0.332541
C53	C	0.958851	-1.068728	-0.332548
C54	C	1.045057	-1.073983	-0.426113
C55	C	1.045034	-1.019379	-0.426102
C56	C	1.001914	-0.989450	-0.379316
C57	C	1.044854	-0.571630	-0.425981
C58	C	1.044833	-0.517023	-0.425958
C59	C	0.958625	-0.511774	-0.332396
C60	C	0.958648	-0.566375	-0.332415
C61	C	1.001765	-0.596303	-0.379214
O62	O	0.922064	-0.650527	-0.292672
O63	O	1.081534	-0.660288	-0.465803
C64	C	1.185076	-0.298851	-0.386603
C65	C	1.263179	-0.301284	-0.389745
C66	C	0.994465	-0.298359	-0.562509
C67	C	0.991342	-0.300582	-0.640611
C68	C	1.001912	-0.156774	-0.379305
C69	C	1.001961	-0.098662	-0.379337
C70	C	1.034838	-0.269593	-0.679131
C71	C	1.031894	-0.271679	-0.752517
C72	C	0.985457	-0.304759	-0.787381
C73	C	0.941956	-0.335750	-0.748855
C74	C	0.944897	-0.333660	-0.675471
C75	C	0.971838	-0.314442	-1.006660
C76	C	0.968902	-0.316531	-1.080049
C77	C	1.058839	-0.252460	-1.083705
C78	C	1.061779	-0.250375	-1.010320
C79	C	1.018275	-0.281364	-0.971801
N80	N	0.982449	-0.306894	-0.862392
N81	N	1.021281	-0.279225	-0.896790
C82	C	1.009138	-0.287908	-0.196666
C83	C	1.012398	-0.285541	-0.118569
H84	H	0.266715	-0.364572	-0.471384
C85	C	1.092238	-0.165640	-1.107721
C86	C	1.106652	-0.218393	-1.126045
H87	H	1.121759	-0.144608	-1.133857
H88	H	1.044556	-0.156865	-1.117854
H89	H	1.100635	-0.159670	-1.059025
H90	H	1.098250	-0.224364	-1.174740
H91	H	1.154345	-0.227171	-1.115917
C92	C	0.190783	-0.233274	-0.302061
C93	C	0.263325	-0.228173	-0.295471
H94	H	0.167107	-0.208898	-0.270645
H95	H	0.176896	-0.226665	-0.348815
H96	H	0.179147	-0.267719	-0.291180
H97	H	0.274961	-0.193729	-0.306357
H98	H	0.277217	-0.234778	-0.248706
H99	H	1.072654	-0.242657	-0.650751
H100	H	0.936424	-0.339683	-0.975306
H101	H	0.406403	-0.242551	-0.313972
H102	H	0.597898	-0.343763	-0.444532
H103	H	0.399854	-0.368707	-0.476711
H104	H	0.604444	-0.217610	-0.281799
H105	H	0.923764	-1.088811	-0.294453
H106	H	1.067316	-0.246446	-0.783877
H107	H	0.731027	-0.347900	-0.449855
H108	H	1.099595	-0.223439	-0.981939
H109	H	0.931085	-0.343469	-1.108433
H110	H	0.737585	-0.221740	-0.287124
C111	C	0.873433	-0.555694	-0.239930
C112	C	0.911277	-0.593498	-0.281000
H113	H	0.844181	-0.572437	-0.208196
H114	H	0.905138	-0.534582	-0.214301
H115	H	0.845305	-0.534430	-0.269443
H116	H	0.939409	-0.614760	-0.251488
H117	H	0.879568	-0.614619	-0.306631
H118	H	0.904143	-0.362682	-0.777247
H119	H	1.079931	-0.496937	-0.464047
C120	C	1.130063	-0.571324	-0.518466
C121	C	1.092248	-0.604520	-0.477423
H122	H	1.159324	-0.591630	-0.550219
H123	H	1.098340	-0.549846	-0.544074
H124	H	1.158179	-0.549988	-0.488938
H125	H	1.064127	-0.625853	-0.506951
H126	H	1.123974	-0.626007	-0.451813
H127	H	1.123125	-0.750746	-0.510906
H128	H	1.123161	-0.849796	-0.510936
C129	C	0.864489	-0.447211	-0.318760
C130	C	0.911232	-0.478867	-0.280974
H131	H	0.835226	-0.426897	-0.287017
H132	H	0.890158	-0.424709	-0.346609
H133	H	0.836375	-0.468559	-0.348274
H134	H	0.939350	-0.457519	-0.251464
H135	H	0.885561	-0.501372	-0.253113
C136	C	1.130241	-1.030070	-0.518590
C137	C	1.092399	-0.992262	-0.477525
H138	H	1.159478	-1.013330	-0.550342
H139	H	1.158377	-1.051323	-0.489082
H140	H	1.098529	-1.051192	-0.544207
H141	H	1.124111	-0.971142	-0.451904
H142	H	1.064260	-0.971000	-0.507037
C143	C	1.083352	-1.160025	-0.467681
C144	C	1.092442	-1.106889	-0.477550
H145	H	1.112601	-1.180340	-0.499437
H146	H	1.095570	-1.167960	-0.420901
H147	H	1.035720	-1.167814	-0.476024
H148	H	1.140073	-1.099099	-0.469201
H149	H	1.080228	-1.098951	-0.524341
H150	H	0.923713	-0.989759	-0.294436
H151	H	0.880534	-0.834994	-0.247628
C152	C	0.830391	-0.760603	-0.193232
C153	C	0.868209	-0.727411	-0.234279
H154	H	0.801133	-0.740293	-0.161479
H155	H	0.802277	-0.781938	-0.222753
H156	H	0.862117	-0.782081	-0.167617
H157	H	0.836483	-0.705935	-0.259898
H158	H	0.896325	-0.706067	-0.204755
H159	H	0.909470	-0.358889	-0.644109
