data_functionalizedCrystal
_audit_creation_method	'MofGen! by Chris Wilmer'
_symmetry_space_group_name_H-M	'P1'
_symmetry_Int_Tables_number	1
_symmetry_cell_setting	triclinic
loop_
_symmetry_equiv_pos_as_xyz
  x,y,z
_cell_length_a	13.033293
_cell_length_b	21.295417
_cell_length_c	13.033352
_cell_angle_alpha	82.836170
_cell_angle_beta	90.908427
_cell_angle_gamma	97.198682
loop_
_atom_site_label
_atom_site_type_symbol
_atom_site_fract_x
_atom_site_fract_y
_atom_site_fract_z
Zn1	Zn	1.498189	-0.196048	0.781418
Zn2	Zn	1.998189	0.303952	1.281418
Zn3	Zn	1.519948	-0.286467	0.609433
Zn4	Zn	2.019948	0.213533	1.109433
Zn5	Zn	1.348102	-0.192674	0.587601
Zn6	Zn	1.848102	0.307326	1.087601
Zn7	Zn	1.326150	-0.312747	0.759463
Zn8	Zn	1.826150	0.187253	1.259463
O9	O	1.423097	-0.246984	0.684479
O10	O	1.923097	0.253016	1.184479
O11	O	1.644992	-0.198456	0.776929
O12	O	2.144992	0.301544	1.276929
O13	O	1.515446	-0.261614	0.462636
O14	O	2.015446	0.238386	0.962636
O15	O	1.368092	-0.105030	0.613362
O16	O	1.868092	0.394970	1.113362
O17	O	1.660979	-0.264886	0.650573
O18	O	2.160979	0.235114	1.150573
O19	O	1.478360	-0.107509	0.755758
O20	O	1.978360	0.392491	1.255758
O21	O	1.389191	-0.192705	0.446596
O22	O	1.889191	0.307295	0.946596
O23	O	1.201273	-0.218188	0.592074
O24	O	1.701273	0.281812	1.092074
O25	O	1.330678	-0.309678	0.906276
O26	O	1.830678	0.190322	1.406276
O27	O	1.185145	-0.306406	0.718340
O28	O	1.685145	0.193594	1.218340
O29	O	1.457074	-0.223939	0.922406
O30	O	1.957074	0.276061	1.422406
O31	O	1.494160	-0.378045	0.629284
O32	O	1.994160	0.121955	1.129284
O33	O	1.351777	-0.397353	0.739510
O34	O	1.851777	0.102647	1.239510
C35	C	1.155893	-0.264783	0.650456
C36	C	1.655893	0.235217	1.150456
C37	C	1.041579	-0.272415	0.635925
C38	C	1.541579	0.227585	1.135925
C39	C	0.982692	-0.243017	0.692062
C40	C	1.482692	0.256983	1.192062
C41	C	0.864542	-0.250904	0.677045
C42	C	1.364542	0.249096	1.177045
C43	C	1.422973	-0.410540	0.684410
C44	C	1.922973	0.089460	1.184410
C45	C	1.423009	-0.480507	0.684427
C46	C	1.923009	0.019493	1.184427
C47	C	1.480382	-0.514613	0.758615
C48	C	1.980382	-0.014613	1.258615
C49	C	1.480415	-0.580356	0.758645
C50	C	1.980415	-0.080356	1.258645
C51	C	1.423089	-0.611986	0.684470
C52	C	1.923089	-0.111986	1.184470
C53	C	1.365704	-0.577872	0.610276
C54	C	1.865704	-0.077872	1.110276
C55	C	1.365664	-0.512132	0.610254
C56	C	1.865664	-0.012132	1.110254
N57	N	1.426782	-0.707989	0.593489
N58	N	1.926782	-0.207989	1.093489
N59	N	1.426825	-0.770439	0.593513
N60	N	1.926825	-0.270439	1.093513
C61	C	1.423203	-0.810057	0.684532
C62	C	1.923203	-0.310057	1.184532
N63	N	1.419555	-0.784865	0.775530
N64	N	1.919555	-0.284865	1.275530
N65	N	1.419517	-0.722408	0.775505
N66	N	1.919517	-0.222408	1.275505
C67	C	1.423125	-0.683270	0.684485
C68	C	1.923125	-0.183270	1.184485
C69	C	1.480614	-0.915449	0.758758
C70	C	1.980614	-0.415449	1.258758
C71	C	1.480640	-0.981193	0.758789
C72	C	1.980640	-0.481193	1.258789
C73	C	1.365935	-0.978707	0.610411
C74	C	1.865935	-0.478707	1.110411
C75	C	1.365903	-0.912966	0.610389
C76	C	1.865903	-0.412966	1.110389
C77	C	1.423248	-0.881340	0.684562
C78	C	1.923248	-0.381340	1.184562
C79	C	1.691345	-0.229116	0.718635
C80	C	2.191345	0.270884	1.218635
C81	C	1.805656	-0.221502	0.733190
C82	C	2.305656	0.278498	1.233190
C83	C	1.389000	-0.270116	0.952697
C84	C	1.889000	0.229884	1.452697
C85	C	1.374470	-0.279974	1.066995
C86	C	1.874470	0.220026	1.566995
C87	C	1.423247	-0.082790	0.684574
C88	C	1.923247	0.417210	1.184574
C89	C	1.423311	-0.012820	0.684614
C90	C	1.923311	0.487180	1.184614
C91	C	1.430530	-0.241947	1.125934
C92	C	1.930530	0.258053	1.625934
C93	C	1.415514	-0.252134	1.244067
C94	C	1.915514	0.247866	1.744067
C95	C	1.457054	-0.223957	1.417303
C96	C	1.957054	0.276043	1.917303
C97	C	1.471582	-0.214102	1.303004
C98	C	1.971582	0.285898	1.803004
H99	H	1.527073	-0.488866	0.819013
H100	H	2.027073	0.011134	1.319013
C101	C	1.302689	-0.612661	0.528648
C102	C	1.802689	-0.112661	1.028648
N103	N	1.255238	-0.638862	0.467153
N104	N	1.755238	-0.138862	0.967153
C105	C	1.032745	-0.201123	0.772008
C106	C	1.532745	0.298877	1.272008
N107	N	1.070444	-0.169567	0.832225
N108	N	1.570444	0.330433	1.332225
H109	H	0.842705	-0.190488	0.792368
H110	H	1.342705	0.309512	1.292368
C111	C	1.302858	-1.013499	0.528830
C112	C	1.802858	-0.513499	1.028830
N113	N	1.255341	-1.039709	0.467386
N114	N	1.755341	-0.539709	0.967386
C115	C	1.510387	-0.187773	1.075956
C116	C	2.010387	0.312227	1.575956
N117	N	1.570538	-0.146968	1.038314
N118	N	2.070538	0.353032	1.538314
H119	H	1.315351	-0.320068	1.103993
H120	H	1.815351	0.179932	1.603993
H121	H	1.356391	-0.292232	1.281060
H122	H	1.856391	0.207768	1.781060
C123	C	1.551448	-0.159927	1.253034
C124	C	2.051448	0.340073	1.753034
N125	N	1.611604	-0.119124	1.215395
N126	N	2.111604	0.380876	1.715395
H127	H	1.527305	-0.889699	0.819157
H128	H	2.027305	-0.389699	1.319157
H129	H	0.827492	-0.281912	0.617861
H130	H	1.327492	0.218088	1.117861
H131	H	1.527125	-0.608132	0.819069
H132	H	2.027125	-0.108132	1.319069
C133	C	0.991526	-0.314306	0.555975
C134	C	1.491526	0.185694	1.055975
N135	N	0.953827	-0.345860	0.495756
N136	N	1.453827	0.154140	0.995756
C137	C	1.302542	-0.474614	0.528641
C138	C	1.802542	0.025386	1.028641
N139	N	1.254997	-0.446354	0.467170
N140	N	1.754997	0.053646	0.967170
H141	H	1.527359	-1.008963	0.819206
H142	H	2.027359	-0.508963	1.319206
C143	C	1.302780	-0.875447	0.528780
C144	C	1.802780	-0.375447	1.028780
N145	N	1.255226	-0.847190	0.467314
N146	N	1.755226	-0.347190	0.967314
