data_functionalizedCrystal
_audit_creation_method	'MofGen! by Chris Wilmer'
_symmetry_space_group_name_H-M	'P1'
_symmetry_Int_Tables_number	1
_symmetry_cell_setting	triclinic
loop_
_symmetry_equiv_pos_as_xyz
  x,y,z
_cell_length_a	10.540514
_cell_length_b	10.540539
_cell_length_c	13.330367
_cell_angle_alpha	89.997527
_cell_angle_beta	89.991931
_cell_angle_gamma	84.520326
loop_
_atom_site_label
_atom_site_type_symbol
_atom_site_fract_x
_atom_site_fract_y
_atom_site_fract_z
O1	O	1.685912	0.178747	-0.083431
O2	O	1.316494	0.195636	-0.083430
O3	O	1.509631	0.002484	-0.083429
O4	O	1.492775	0.371899	-0.083432
O5	O	1.509603	0.002480	0.083418
O6	O	1.316466	0.195632	0.083417
O7	O	1.685883	0.178742	0.083416
Cu8	Cu	1.501172	0.187187	0.098651
Cu9	Cu	1.501206	0.187192	-0.098665
O10	O	1.492747	0.371894	0.083416
C11	C	1.269177	0.194374	-0.000006
C12	C	1.128227	0.190605	-0.000006
C13	C	1.057522	0.328745	-0.000009
C14	C	0.910908	0.324871	-0.000392
C15	C	0.935906	0.115481	-0.095104
C16	C	1.082445	0.120334	-0.095178
C17	C	1.082816	0.118285	0.094565
C18	C	0.935837	0.116952	0.095809
C19	C	1.508353	-0.044821	-0.000007
C20	C	1.504571	-0.185769	-0.000013
C21	C	1.359652	-0.369182	-0.000387
C22	C	1.363486	-0.222564	-0.000011
C23	C	1.572451	-0.247435	0.095265
C24	C	1.567636	-0.393979	0.095345
C25	C	1.570538	-0.394492	-0.094391
C26	C	1.571837	-0.247510	-0.095651
C27	C	1.733201	0.180004	-0.000010
C28	C	1.874151	0.183774	-0.000017
C29	C	1.494025	0.419199	-0.000008
C30	C	1.497807	0.560147	-0.000010
N31	N	1.501158	0.187182	0.237433
N32	N	1.501230	0.187187	-0.237446
C33	C	1.415681	0.272686	0.710055
C34	C	1.586765	0.101689	0.710024
C35	C	1.586750	0.101685	0.605006
C36	C	1.501201	0.187184	0.552507
C37	C	1.415666	0.272687	0.605027
C38	C	1.672292	0.016192	0.552478
C39	C	1.672282	0.016185	0.447453
C40	C	1.586726	0.101679	0.394953
C41	C	1.501187	0.187185	0.447479
C42	C	1.415637	0.272684	0.394981
C43	C	1.330091	0.358185	0.447505
C44	C	1.330110	0.358181	0.552527
C45	C	1.586707	0.101683	0.289931
C46	C	1.415623	0.272685	0.289953
H47	H	1.130452	0.018861	-0.099237
H48	H	1.676059	-0.225090	0.098807
H49	H	1.522170	-0.206646	-0.166135
C50	C	1.710806	-0.214812	-0.103421
N51	N	1.815485	-0.190188	-0.109265
C52	C	1.291317	-0.164996	-0.092275
N53	N	1.236950	-0.121640	-0.161769
H54	H	1.303932	-0.397775	-0.068712
H55	H	1.260462	0.427794	0.595299
C56	C	1.146661	-0.019366	0.095809
N57	N	1.194753	-0.123040	0.096737
C58	C	1.766390	-0.077851	0.610232
N59	N	1.837264	-0.148690	0.653737
C60	C	1.284665	-0.409946	0.091422
N61	N	1.228193	-0.440639	0.160581
C62	C	1.098365	0.403346	-0.091995
N63	N	1.129130	0.459532	-0.161283
C64	C	1.766374	-0.077876	0.389686
N65	N	1.837240	-0.148729	0.346174
H66	H	1.525275	-0.204833	0.166168
H67	H	0.869188	0.378360	-0.068957
H68	H	0.894829	0.166861	0.166156
C69	C	1.096056	0.404451	0.092100
N70	N	1.125086	0.461473	0.161480
C71	C	0.903152	-0.021987	0.103958
N72	N	0.878533	-0.126640	0.110089
H73	H	1.346026	0.342296	0.752823
C74	C	1.499816	-0.432073	0.191557
N75	N	1.448728	-0.460759	0.264024
H76	H	1.309675	-0.180805	0.068402
C77	C	0.905755	-0.024520	-0.099524
N78	N	0.883041	-0.129968	-0.102852
C79	C	1.321542	0.366776	0.232213
N80	N	1.250694	0.437659	0.188724
C81	C	1.680803	0.007639	0.232159
N82	N	1.751678	-0.063203	0.188646
C83	C	1.704708	-0.458798	0.101200
N84	N	1.807949	-0.507614	0.105616
C85	C	1.508862	-0.437104	-0.191950
N86	N	1.462394	-0.469197	-0.265427
H87	H	1.114298	0.164267	0.166660
C88	C	1.120596	0.187713	-0.191575
N89	N	1.149325	0.238463	-0.264185
C90	C	1.708203	-0.458312	-0.095262
N91	N	1.811888	-0.506389	-0.095912
H92	H	1.260442	0.427804	0.404749
H93	H	1.656423	0.032084	0.752771
C94	C	0.878356	0.178718	-0.191070
N95	N	0.834989	0.226336	-0.263350
H96	H	0.868233	0.378586	0.067754
