data_functionalizedCrystal
_audit_creation_method	'MofGen! by Chris Wilmer'
_symmetry_space_group_name_H-M	'P1'
_symmetry_Int_Tables_number	1
_symmetry_cell_setting	triclinic
loop_
_symmetry_equiv_pos_as_xyz
  x,y,z
_cell_length_a	17.699097
_cell_length_b	14.044220
_cell_length_c	16.176319
_cell_angle_alpha	89.992517
_cell_angle_beta	89.988988
_cell_angle_gamma	88.238654
loop_
_atom_site_label
_atom_site_type_symbol
_atom_site_fract_x
_atom_site_fract_y
_atom_site_fract_z
O1	O	1.012344	0.119911	-0.068818
O2	O	1.512344	0.619911	0.431182
O3	O	0.793042	0.135490	-0.068805
O4	O	1.293042	0.635490	0.431195
O5	O	0.899401	-0.010277	-0.068803
O6	O	1.399401	0.489723	0.431197
O7	O	0.905985	0.265678	-0.068820
O8	O	1.405985	0.765678	0.431180
O9	O	0.899385	-0.010286	0.068690
O10	O	1.399385	0.489714	0.568690
O11	O	0.793025	0.135481	0.068688
O12	O	1.293025	0.635481	0.568688
O13	O	1.012327	0.119901	0.068675
O14	O	1.512327	0.619901	0.568675
Cu15	Cu	0.902675	0.127690	0.081236
Cu16	Cu	1.402675	0.627690	0.581236
Cu17	Cu	0.902694	0.127701	-0.081366
Cu18	Cu	1.402694	0.627701	0.418634
O19	O	0.905968	0.265668	0.068673
O20	O	1.405968	0.765668	0.568673
C21	C	0.764798	0.134925	-0.000057
C22	C	1.264798	0.634925	0.499943
C23	C	0.680664	0.133244	-0.000051
C24	C	1.180664	0.633244	0.499949
C25	C	0.164244	0.122944	-0.075032
C26	C	0.664244	0.622944	0.424968
C27	C	0.243297	0.124518	-0.075028
C28	C	0.743297	0.624518	0.424972
C29	C	0.282808	0.125301	-0.000077
C30	C	0.782808	0.625301	0.499923
C31	C	0.243263	0.124501	0.074875
C32	C	0.743263	0.624501	0.574875
C33	C	0.164212	0.122921	0.074870
C34	C	0.664212	0.622921	0.574870
C35	C	0.562067	0.130871	0.074896
C36	C	1.062067	0.630871	0.574896
C37	C	0.641123	0.132454	0.074895
C38	C	1.141123	0.632454	0.574895
C39	C	0.641152	0.132468	-0.075001
C40	C	1.141152	0.632468	0.424999
C41	C	0.562101	0.130888	-0.075006
C42	C	1.062101	0.630888	0.424994
C43	C	0.522563	0.130083	-0.000055
C44	C	1.022563	0.630083	0.499945
C45	C	0.436845	0.128376	-0.000060
C46	C	0.936845	0.628376	0.499940
C47	C	0.368524	0.127015	-0.000071
C48	C	0.868524	0.627015	0.499929
C49	C	0.896511	-0.045589	-0.000056
C50	C	1.396511	0.454411	0.499944
C51	C	0.887915	-0.150796	-0.000055
C52	C	1.387915	0.349204	0.499945
C53	C	0.872200	-0.343422	-0.000066
C54	C	1.372200	0.156578	0.499934
C55	C	0.933166	-0.401192	-0.000072
C56	C	1.433166	0.098808	0.499928
C57	C	0.924422	-0.508376	-0.000078
C58	C	1.424422	-0.008376	0.499922
C59	C	0.880943	-0.236228	-0.000059
C60	C	1.380943	0.263772	0.499941
C61	C	1.040571	0.120466	-0.000075
C62	C	1.540571	0.620466	0.499925
C63	C	1.124705	0.122148	-0.000086
C64	C	1.624705	0.622148	0.499914
C65	C	0.908858	0.300981	-0.000076
C66	C	1.408858	0.800981	0.499924
C67	C	0.917454	0.406188	-0.000083
C68	C	1.417454	0.906188	0.499917
N69	N	0.902666	0.127682	0.195601
N70	N	1.402666	0.627682	0.695601
N71	N	0.902708	0.127702	-0.195731
N72	N	1.402708	0.627702	0.304269
C73	C	0.949780	0.063163	0.238866
C74	C	1.449780	0.563163	0.738866
C75	C	0.949783	0.063162	0.325413
C76	C	1.449783	0.563162	0.825413
C77	C	0.902677	0.127685	0.368694
C78	C	1.402677	0.627685	0.868694
C79	C	0.855559	0.192208	0.325423
C80	C	1.355559	0.692208	0.825423
C81	C	0.855552	0.192204	0.238877
C82	C	1.355552	0.692204	0.738877
C83	C	0.855586	0.192226	0.674451
C84	C	1.355586	0.692226	1.174451
C85	C	0.855598	0.192227	0.761002
C86	C	1.355598	0.692227	1.261002
C87	C	0.949818	0.063184	0.760987
C88	C	1.449818	0.563184	1.260987
C89	C	0.949811	0.063180	0.674441
C90	C	1.449811	0.563180	1.174441
C91	C	0.902690	0.127698	0.631178
C92	C	1.402690	0.627698	1.131178
C93	C	0.902685	0.127697	0.537334
C94	C	1.402685	0.627697	1.037334
C95	C	0.902685	0.127692	0.462536
C96	C	1.402685	0.627692	0.962536
H97	H	0.275487	0.125161	-0.136056
H98	H	0.775487	0.625161	0.363944
H99	H	0.817200	0.244741	0.360667
H100	H	1.317200	0.744741	0.860667
H101	H	0.991927	-0.370153	-0.000131
H102	H	1.491927	0.129847	0.499869
H103	H	0.988146	0.010625	0.360639
H104	H	1.488146	0.510625	0.860639
H105	H	0.988171	0.010642	0.639205
H106	H	1.488171	0.510642	1.139205
H107	H	0.988184	0.010646	0.796221
H108	H	1.488184	0.510646	1.296221
H109	H	0.817236	0.244771	0.796240
H110	H	1.317236	0.744771	1.296240
H111	H	0.529934	0.130255	-0.136039
H112	H	1.029934	0.630255	0.363961
H113	H	0.132020	0.122282	0.135899
H114	H	0.632020	0.622282	0.635899
H115	H	0.813443	-0.374459	-0.000064
H116	H	1.313443	0.125541	0.499936
H117	H	0.817220	0.244760	0.639232
H118	H	1.317220	0.744760	1.139232
H119	H	0.132080	0.122314	-0.136066
H120	H	0.632080	0.622314	0.363934
H121	H	0.673353	0.133119	-0.136030
H122	H	1.173353	0.633119	0.363970
H123	H	0.673291	0.133092	0.135933
H124	H	1.173291	0.633092	0.635933
H125	H	0.817186	0.244740	0.203651
H126	H	1.317186	0.744740	0.703651
H127	H	0.529885	0.130202	0.135926
H128	H	1.029885	0.630202	0.635926
H129	H	0.275440	0.125132	0.135901
H130	H	0.775440	0.625132	0.635901
H131	H	0.988142	0.010624	0.203633
H132	H	1.488142	0.510624	0.703633
