data_functionalizedCrystal
_audit_creation_method	'MofGen! by Chris Wilmer'
_symmetry_space_group_name_H-M	'P1'
_symmetry_Int_Tables_number	1
_symmetry_cell_setting	triclinic
loop_
_symmetry_equiv_pos_as_xyz
  x,y,z
_cell_length_a	14.044220
_cell_length_b	17.699083
_cell_length_c	16.776229
_cell_angle_alpha	90.001114
_cell_angle_beta	89.992645
_cell_angle_gamma	91.764054
loop_
_atom_site_label
_atom_site_type_symbol
_atom_site_fract_x
_atom_site_fract_y
_atom_site_fract_z
O1	O	0.119850	-1.012346	-0.066178
O2	O	0.619850	-0.512346	0.433822
O3	O	0.135443	-0.793043	-0.066204
O4	O	0.635443	-0.293043	0.433796
O5	O	-0.010330	-0.899403	-0.066183
O6	O	0.489670	-0.399403	0.433817
O7	O	0.265624	-0.905986	-0.066198
O8	O	0.765624	-0.405986	0.433802
O9	O	-0.010339	-0.899387	0.066393
O10	O	0.489661	-0.399387	0.566393
O11	O	0.135434	-0.793027	0.066372
O12	O	0.635434	-0.293027	0.566372
O13	O	0.119841	-1.012330	0.066399
O14	O	0.619841	-0.512330	0.566399
Zn15	Zn	0.127636	-0.902676	0.087435
Zn16	Zn	0.627636	-0.402676	0.587435
Zn17	Zn	0.127648	-0.902697	-0.087240
Zn18	Zn	0.627648	-0.402697	0.412760
O19	O	0.265615	-0.905970	0.066378
O20	O	0.765615	-0.405970	0.566378
C21	C	0.134880	-0.764800	0.000081
C22	C	0.634880	-0.264800	0.500081
C23	C	0.133204	-0.680666	0.000071
C24	C	0.633204	-0.180666	0.500071
C25	C	-0.045643	-0.896513	0.000105
C26	C	0.454357	-0.396513	0.500105
C27	C	-0.150849	-0.887917	0.000105
C28	C	0.349151	-0.387917	0.500105
C29	C	0.120404	-1.040574	0.000112
C30	C	0.620404	-0.540574	0.500112
C31	C	0.122081	-1.124707	0.000117
C32	C	0.622081	-0.624707	0.500117
C33	C	-0.343474	-0.872202	0.000091
C34	C	0.156526	-0.372202	0.500091
C35	C	-0.401248	-0.933168	0.000096
C36	C	0.098752	-0.433168	0.500096
C37	C	-0.508431	-0.924424	0.000089
C38	C	-0.008431	-0.424424	0.500089
C39	C	-0.236281	-0.880945	0.000099
C40	C	0.263719	-0.380945	0.500099
C41	C	0.300927	-0.908860	0.000088
C42	C	0.800927	-0.408860	0.500088
C43	C	0.406133	-0.917456	0.000083
C44	C	0.906133	-0.417456	0.500083
N45	N	0.127628	-0.902667	0.206646
N46	N	0.627628	-0.402667	0.706646
C47	C	0.218769	-0.637948	0.000067
C48	C	0.718769	-0.137948	0.500067
C49	C	0.217189	-0.558895	0.000077
C50	C	0.717189	-0.058895	0.500077
C51	C	0.130041	-0.522563	0.000086
C52	C	0.630041	-0.022563	0.500086
C53	C	0.044469	-0.565287	0.000093
C54	C	0.544469	-0.065287	0.500093
C55	C	0.046050	-0.644338	0.000088
C56	C	0.546050	-0.144338	0.500088
C57	C	0.038089	-0.246484	0.000113
C58	C	0.538089	0.253516	0.500113
C59	C	0.036514	-0.167427	0.000115
C60	C	0.536514	0.332573	0.500115
C61	C	0.209227	-0.161041	0.000102
C62	C	0.709227	0.338959	0.500102
C63	C	0.210809	-0.240092	0.000097
C64	C	0.710809	0.259908	0.500097
C65	C	0.125237	-0.282809	0.000108
C66	C	0.625237	0.217191	0.500108
C67	C	0.126952	-0.368527	0.000098
C68	C	0.626952	0.131473	0.500098
C69	C	0.128325	-0.436847	0.000090
C70	C	0.628325	0.063153	0.500090
N71	N	0.127649	-0.902712	-0.206452
N72	N	0.627649	-0.402712	0.293548
C73	C	0.063106	-0.949781	0.248372
C74	C	0.563106	-0.449781	0.748372
C75	C	0.063105	-0.949785	0.331825
C76	C	0.563105	-0.449785	0.831825
C77	C	0.127631	-0.902679	0.373549
C78	C	0.627631	-0.402679	0.873549
C79	C	0.192156	-0.855560	0.331817
C80	C	0.692156	-0.355560	0.831817
C81	C	0.192152	-0.855552	0.248366
C82	C	0.692152	-0.355552	0.748366
C83	C	0.192175	-0.855589	0.668364
C84	C	0.692175	-0.355589	1.168364
C85	C	0.192176	-0.855601	0.751821
C86	C	0.692176	-0.355601	1.251821
C87	C	0.063128	-0.949821	0.751822
C88	C	0.563128	-0.449821	1.251822
C89	C	0.063123	-0.949813	0.668372
C90	C	0.563123	-0.449813	1.168372
C91	C	0.127645	-0.902692	0.626647
C92	C	0.627645	-0.402692	1.126647
C93	C	0.127644	-0.902687	0.536159
C94	C	0.627644	-0.402687	1.036159
C95	C	0.127638	-0.902687	0.464036
C96	C	0.627638	-0.402687	0.964036
H97	H	-0.374508	-0.813445	0.000082
H98	H	0.125492	-0.313445	0.500082
H99	H	0.278904	-0.126251	0.000097
H100	H	0.778904	0.373749	0.500097
H101	H	-0.023626	-0.679119	0.000091
H102	H	0.476374	-0.179119	0.500091
H103	H	0.289735	-0.667523	0.000059
H104	H	0.789735	-0.167523	0.500059
O105	O	0.261793	-0.804800	0.796820
O106	O	0.761793	-0.304800	1.296820
H107	H	0.249813	-0.744988	0.780826
H108	H	0.749813	-0.244988	1.280826
H109	H	0.244712	-0.817222	0.634398
H110	H	0.744712	-0.317222	1.134398
H111	H	0.286865	-0.524117	0.000073
H112	H	0.786865	-0.024117	0.500073
O113	O	-0.057490	-0.128242	0.000137
O114	O	0.442510	0.371758	0.500137
H115	H	-0.062350	-0.092384	-0.053900
H116	H	0.437650	0.407616	0.446100
H117	H	-0.031590	-0.281255	0.000123
H118	H	0.468410	0.218745	0.500123
O119	O	0.261759	-0.804759	0.376820
O120	O	0.761759	-0.304759	0.876820
H121	H	0.306622	-0.771994	0.333783
H122	H	0.806622	-0.271994	0.833783
H123	H	0.244691	-0.817187	0.214394
H124	H	0.744691	-0.317187	0.714394
H125	H	0.010583	-0.988174	0.634402
H126	H	0.510583	-0.488174	1.134402
H127	H	-0.370212	-0.991930	0.000050
H128	H	0.129788	-0.491930	0.500050
H129	H	0.281773	-0.269670	0.000086
H130	H	0.781773	0.230330	0.500086
O131	O	-0.049530	-0.526105	0.000110
O132	O	0.450470	-0.026105	0.500110
H133	H	-0.054387	-0.490246	-0.053927
H134	H	0.445613	0.009754	0.446073
O135	O	-0.006495	-1.000585	0.203370
O136	O	0.493505	-0.500585	0.703370
H137	H	-0.051368	-1.033340	0.246409
H138	H	0.448632	-0.533340	0.746409
H139	H	0.010565	-0.988148	0.365798
H140	H	0.510565	-0.488148	0.865798
O141	O	-0.006477	-1.000640	0.796824
O142	O	0.493523	-0.500640	1.296824
H143	H	0.004355	-0.992728	0.861862
H144	H	0.504355	-0.492728	1.361862
