data_functionalizedCrystal
_audit_creation_method	'MofGen! by Chris Wilmer'
_symmetry_space_group_name_H-M	'P1'
_symmetry_Int_Tables_number	1
_symmetry_cell_setting	triclinic
loop_
_symmetry_equiv_pos_as_xyz
  x,y,z
_cell_length_a	14.908571
_cell_length_b	19.121063
_cell_length_c	14.908294
_cell_angle_alpha	95.554706
_cell_angle_beta	90.175425
_cell_angle_gamma	89.303906
loop_
_atom_site_label
_atom_site_type_symbol
_atom_site_fract_x
_atom_site_fract_y
_atom_site_fract_z
Zn1	Zn	1.324068	-0.366418	-0.606394
Zn2	Zn	1.824068	0.133582	-0.106394
Zn3	Zn	1.326217	-0.477476	-0.461735
Zn4	Zn	1.826217	0.022524	0.038265
Zn5	Zn	1.183166	-0.352931	-0.446699
Zn6	Zn	1.683166	0.147069	0.053301
Zn7	Zn	1.167292	-0.476642	-0.603344
Zn8	Zn	1.667292	0.023358	-0.103344
O9	O	1.250186	-0.418367	-0.529543
O10	O	1.750186	0.081633	-0.029543
O11	O	1.449832	-0.387143	-0.594773
O12	O	1.949832	0.112857	-0.094773
O13	O	1.314783	-0.455660	-0.333644
O14	O	1.814783	0.044340	0.166356
O15	O	1.207601	-0.256469	-0.462866
O16	O	1.707601	0.243531	0.037134
O17	O	1.451410	-0.468737	-0.488494
O18	O	1.951410	0.031263	0.011506
O19	O	1.311121	-0.266377	-0.580193
O20	O	1.811121	0.233623	-0.080193
O21	O	1.209684	-0.364157	-0.322597
O22	O	1.709684	0.135843	0.177403
O23	O	1.055581	-0.363349	-0.459909
O24	O	1.555581	0.136651	0.040091
O25	O	1.180546	-0.467315	-0.729845
O26	O	1.680546	0.032685	-0.229845
O27	O	1.043919	-0.454238	-0.574996
O28	O	1.543919	0.045762	-0.074996
O29	O	1.295729	-0.386334	-0.732086
O30	O	1.795729	0.113666	-0.232086
O31	O	1.299391	-0.575617	-0.485537
O32	O	1.799391	-0.075617	0.014463
O33	O	1.182630	-0.575004	-0.589576
O34	O	1.682630	-0.075004	-0.089576
C35	C	1.017215	-0.407240	-0.515491
C36	C	1.517215	0.092760	-0.015491
C37	C	0.917546	-0.402498	-0.509501
C38	C	1.417546	0.097502	-0.009501
C39	C	0.718165	-0.488363	-0.617939
C40	C	1.218165	0.011637	-0.117939
C41	C	0.624517	-0.483909	-0.612314
C42	C	1.124517	0.016091	-0.112314
C43	C	0.636602	-0.389135	-0.492633
C44	C	1.136602	0.110865	0.007367
C45	C	0.730249	-0.393588	-0.498258
C46	C	1.230249	0.106412	0.001742
C47	C	0.771027	-0.443204	-0.560911
C48	C	1.271027	0.056796	-0.060911
C49	C	0.864677	-0.447661	-0.566531
C50	C	1.364677	0.052339	-0.066531
C51	C	0.876759	-0.352883	-0.446855
C52	C	1.376759	0.147117	0.053145
C53	C	0.783112	-0.348430	-0.441231
C54	C	1.283112	0.151570	0.058769
C55	C	1.239544	-0.600788	-0.538878
C56	C	1.739544	-0.100788	-0.038878
C57	C	1.235072	-0.678833	-0.542907
C58	C	1.735072	-0.178833	-0.042907
C59	C	1.293804	-0.715799	-0.490682
C60	C	1.793804	-0.215799	0.009318
C61	C	1.289603	-0.789132	-0.494477
C62	C	1.789603	-0.289132	0.005523
C63	C	1.226665	-0.825497	-0.550492
C64	C	1.726665	-0.325497	-0.050492
C65	C	1.167930	-0.788526	-0.602723
C66	C	1.667930	-0.288526	-0.102723
C67	C	1.172136	-0.715195	-0.598932
C68	C	1.672136	-0.215195	-0.098932
C69	C	1.210926	-1.046894	-0.564648
C70	C	1.710926	-0.546894	-0.064648
C71	C	1.206722	-1.120230	-0.568433
C72	C	1.706722	-0.620230	-0.068433
C73	C	1.328397	-1.120831	-0.460188
C74	C	1.828397	-0.620831	0.039812
C75	C	1.332593	-1.047498	-0.456398
C76	C	1.832593	-0.547498	0.043602
C77	C	1.273862	-1.010534	-0.508632
C78	C	1.773862	-0.510534	-0.008632
C79	C	1.222367	-0.900454	-0.554370
C80	C	1.722367	-0.400454	-0.054370
C81	C	1.278164	-0.935578	-0.504759
C82	C	1.778164	-0.435578	-0.004759
C83	C	1.484066	-0.429537	-0.543651
C84	C	1.984066	0.070463	-0.043651
C85	C	1.583732	-0.434298	-0.549663
C86	C	2.083732	0.065702	-0.049663
C87	C	1.236127	-0.428236	-0.764575
C88	C	1.736127	0.071764	-0.264575
C89	C	1.230136	-0.432442	-0.864732
C90	C	1.730136	0.067558	-0.364732
C91	C	1.260892	-0.235235	-0.520193
C92	C	1.760892	0.264765	-0.020193
C93	C	1.265454	-0.157196	-0.516208
C94	C	1.765454	0.342804	-0.016208
C95	C	1.161726	-0.480524	-1.004733
C96	C	1.661726	0.019476	-0.504733
C97	C	1.167353	-0.476577	-0.910627
C98	C	1.667353	0.023423	-0.410627
C99	C	1.287296	-0.392249	-0.912950
C100	C	1.787296	0.107751	-0.412950
C101	C	1.281669	-0.396195	-1.007056
C102	C	1.781669	0.103805	-0.507056
C103	C	1.218882	-0.440335	-1.052944
C104	C	1.718882	0.059665	-0.552944
C105	C	1.213260	-0.444285	-1.147052
C106	C	1.713260	0.055715	-0.647052
C107	C	1.333198	-0.359954	-1.149373
C108	C	1.833198	0.140046	-0.649373
C109	C	1.338825	-0.356007	-1.055267
C110	C	1.838825	0.143993	-0.555267
C111	C	1.264244	-0.408487	-0.295426
C112	C	1.764244	0.091513	0.204574
C113	C	1.270420	-0.404092	-0.195270
C114	C	1.770420	0.095908	0.304730
H115	H	0.749897	-0.308032	-0.390222
H116	H	1.249897	0.191968	0.109778
H117	H	0.919811	-0.316113	-0.400417
H118	H	1.419811	0.183887	0.099583
H119	H	1.379741	-0.327230	-1.188637
H120	H	1.879741	0.172770	-0.688637
H121	H	1.345051	-0.686195	-0.445065
H122	H	1.845051	-0.186195	0.054935
H123	H	0.897876	-0.488062	-0.617545
H124	H	1.397876	0.011938	-0.117545
Cl125	Cl	1.357287	-0.889861	-0.434346
Cl126	Cl	1.857287	-0.389861	0.065654
H127	H	1.155480	-1.149837	-0.614063
H128	H	1.655480	-0.649837	-0.114063
H129	H	1.163102	-1.016803	-0.607178
H130	H	1.663102	-0.516803	-0.107178
Cl131	Cl	1.088812	-0.834243	-0.673148
Cl132	Cl	1.588812	-0.334243	-0.173148
H133	H	1.162139	-0.480228	-1.184413
H134	H	1.662139	0.019772	-0.684413
H135	H	1.338408	-0.356309	-0.875571
H136	H	1.838408	0.143691	-0.375571
Cl137	Cl	1.098301	-0.668724	-0.664592
Cl138	Cl	1.598301	-0.168724	-0.164592
H139	H	1.389942	-0.320068	-1.017892
H140	H	1.889942	0.179932	-0.517892
Cl141	Cl	1.082804	-0.536018	-1.062425
Cl142	Cl	1.582804	-0.036018	-0.562425
Cl143	Cl	1.363444	-0.835600	-0.428823
Cl144	Cl	1.863444	-0.335600	0.071177
H145	H	1.171121	-0.930071	-0.599976
H146	H	1.671121	-0.430071	-0.099976
H147	H	0.751367	-0.528766	-0.668949
H148	H	1.251367	-0.028766	-0.168949
H149	H	1.383843	-1.017891	-0.410787
H150	H	1.883843	-0.517891	0.089213
H151	H	0.581479	-0.520680	-0.658753
H152	H	1.081479	-0.020680	-0.158753
Cl153	Cl	0.585322	-0.326755	-0.413889
Cl154	Cl	1.085322	0.173245	0.086111
Cl155	Cl	1.402231	-1.167305	-0.394533
Cl156	Cl	1.902231	-0.667305	0.105467
Cl157	Cl	1.095493	-0.527100	-0.850021
Cl158	Cl	1.595493	-0.027100	-0.350021
