data_functionalizedCrystal
_audit_creation_method	'MofGen! by Chris Wilmer'
_symmetry_space_group_name_H-M	'P1'
_symmetry_Int_Tables_number	1
_symmetry_cell_setting	triclinic
loop_
_symmetry_equiv_pos_as_xyz
  x,y,z
_cell_length_a	9.065215
_cell_length_b	10.540539
_cell_length_c	9.616153
_cell_angle_alpha	90.004388
_cell_angle_beta	90.001647
_cell_angle_gamma	84.770094
loop_
_atom_site_label
_atom_site_type_symbol
_atom_site_fract_x
_atom_site_fract_y
_atom_site_fract_z
O1	O	1.959469	0.186131	0.115622
O2	O	1.530107	0.201404	0.115628
O3	O	1.754584	0.009097	0.115623
O4	O	1.734992	0.378438	0.115627
O5	O	1.754575	0.009084	-0.115668
O6	O	1.530098	0.201390	-0.115664
O7	O	1.959460	0.186118	-0.115669
Zn8	Zn	1.744778	0.193752	-0.152389
Zn9	Zn	1.744790	0.193770	0.152348
O10	O	1.734984	0.378424	-0.115665
C11	C	1.475123	0.199930	-0.000017
C12	C	1.311302	0.195544	-0.000015
C13	C	1.753110	-0.038218	-0.000020
C14	C	1.748714	-0.179182	-0.000012
C15	C	1.580280	-0.363230	0.000509
C16	C	1.584736	-0.216596	-0.000012
C17	C	1.827623	-0.240557	-0.132092
C18	C	1.822027	-0.387122	-0.132203
C19	C	1.825372	-0.387612	0.130818
C20	C	1.826882	-0.240625	0.132564
C21	C	2.014444	0.187592	-0.000021
C22	C	2.178265	0.191978	-0.000015
C23	C	1.736457	0.425740	-0.000018
C24	C	1.740853	0.566704	-0.000017
N25	N	1.744780	0.193739	-0.360363
C26	C	1.865310	0.091226	-0.580693
C27	C	1.864984	0.090832	-0.419525
C28	C	1.590540	0.163039	-0.418892
C29	C	1.591257	0.162320	-0.580110
C30	C	1.777142	0.327307	-0.580237
C31	C	1.780622	0.326448	-0.419009
N32	N	1.744798	0.193773	0.360322
H33	H	1.522646	-0.174216	0.094668
H34	H	1.980301	0.109498	-0.619455
H35	H	1.498815	0.234078	-0.619131
F36	F	1.495614	-0.400914	0.124312
F37	F	1.662299	0.427081	-0.630101
H38	H	1.844795	-0.007270	-0.621224
F39	F	1.502997	-0.162320	-0.123967
H40	H	1.946435	-0.215962	0.140538
H41	H	1.515765	-0.393681	-0.093676
F42	F	1.752008	-0.186894	0.260297
H43	H	1.943813	-0.434401	0.131705
F44	F	1.837765	-0.038649	-0.369127
F45	F	1.976167	-0.449256	-0.140052
H46	H	1.561586	0.066694	-0.378530
H47	H	1.979593	0.109374	-0.379952
H48	H	1.887287	0.356379	-0.620887
F49	F	1.755969	-0.185152	-0.260565
H50	H	1.948044	-0.217759	-0.137005
F51	F	1.470418	0.257960	-0.368807
H52	H	1.772304	-0.419355	0.230926
F53	F	1.554276	0.034960	-0.629284
F54	F	1.928932	0.356853	-0.368998
H55	H	1.698640	0.406465	-0.378733
H56	H	1.763702	-0.415542	-0.230934
