data_functionalizedCrystal
_audit_creation_method	'MofGen! by Chris Wilmer'
_symmetry_space_group_name_H-M	'P1'
_symmetry_Int_Tables_number	1
_symmetry_cell_setting	triclinic
loop_
_symmetry_equiv_pos_as_xyz
  x,y,z
_cell_length_a	12.759401
_cell_length_b	25.639239
_cell_length_c	12.759393
_cell_angle_alpha	89.964022
_cell_angle_beta	89.980324
_cell_angle_gamma	90.039113
loop_
_atom_site_label
_atom_site_type_symbol
_atom_site_fract_x
_atom_site_fract_y
_atom_site_fract_z
Zn1	Zn	1.606091	-0.208120	-0.593945
Zn2	Zn	1.605909	-0.295565	-0.418248
Zn3	Zn	1.430390	-0.208146	-0.418284
Zn4	Zn	1.430308	-0.295526	-0.593889
O5	O	1.518175	-0.251839	-0.506091
O6	O	1.753088	-0.219724	-0.570646
O7	O	1.582584	-0.283995	-0.271232
O8	O	1.453808	-0.134977	-0.441624
O9	O	1.752954	-0.283970	-0.441563
O10	O	1.582895	-0.134958	-0.570681
O11	O	1.453631	-0.219769	-0.271258
O12	O	1.283358	-0.219732	-0.441570
O13	O	1.453669	-0.283905	-0.740918
O14	O	1.283298	-0.283930	-0.570586
O15	O	1.582815	-0.219687	-0.740958
O16	O	1.582504	-0.368725	-0.441509
O17	O	1.453492	-0.368697	-0.570552
C18	C	1.245207	-0.251830	-0.506076
C19	C	1.128431	-0.251839	-0.506095
C20	C	1.073639	-0.218447	-0.573413
C21	C	0.963915	-0.218452	-0.573419
C22	C	0.963784	-0.285246	-0.438789
C23	C	1.073506	-0.285238	-0.438777
C24	C	0.814047	-0.156824	-0.611200
C25	C	0.759252	-0.123436	-0.678534
C26	C	0.794917	-0.115468	-0.781074
C27	C	0.885376	-0.140894	-0.816301
C28	C	0.940166	-0.174286	-0.748972
C29	C	0.904502	-0.182245	-0.646418
C30	C	1.223375	-0.346866	-0.401008
C31	C	1.278167	-0.380261	-0.333684
C32	C	1.242504	-0.388235	-0.231142
C33	C	1.152042	-0.362818	-0.195919
C34	C	1.097250	-0.329423	-0.263243
C35	C	1.132921	-0.321448	-0.365783
C36	C	1.517998	-0.387682	-0.506043
C37	C	1.518018	-0.445796	-0.506058
C38	C	1.585527	-0.806161	-0.439013
C39	C	1.585568	-0.860765	-0.439027
O40	O	1.642782	-0.889004	-0.381971
N41	N	1.518359	-0.888078	-0.506161
C42	C	1.451113	-0.860784	-0.573292
O43	O	1.393952	-0.889030	-0.630397
C44	C	1.451079	-0.806181	-0.573283
C45	C	1.518284	-0.778870	-0.506137
C46	C	1.652728	-0.778850	-0.371874
C47	C	1.652685	-0.724250	-0.371859
C48	C	1.585442	-0.696960	-0.438983
C49	C	1.518242	-0.724270	-0.506122
C50	C	1.383839	-0.778888	-0.640419
C51	C	1.383810	-0.724281	-0.640404
C52	C	1.451016	-0.696970	-0.573259
C53	C	1.450956	-0.642379	-0.573231
N54	N	1.518165	-0.615066	-0.506097
C55	C	1.585408	-0.642356	-0.438973
C56	C	1.451192	-0.975455	-0.573309
C57	C	1.451221	-1.030057	-0.573314
C58	C	1.585677	-1.030034	-0.439050
C59	C	1.585642	-0.975431	-0.439040
C60	C	1.518401	-0.948142	-0.506175
C61	C	1.585313	-0.527691	-0.438946
C62	C	1.585261	-0.473086	-0.438934
C63	C	1.450810	-0.473113	-0.573201
C64	C	1.450857	-0.527714	-0.573210
C65	C	1.518117	-0.555002	-0.506079
O66	O	1.393774	-0.614106	-0.630261
O67	O	1.642569	-0.614104	-0.381888
C68	C	1.792208	-0.251849	-0.506107
C69	C	1.908984	-0.251853	-0.506113
C70	C	1.518253	-0.251789	-0.780125
C71	C	1.518287	-0.251768	-0.896902
C72	C	1.518381	-0.115466	-0.506163
C73	C	1.518468	-0.057352	-0.506193
C74	C	1.585539	-0.218324	-0.951786
C75	C	1.585556	-0.218302	-1.061511
C76	C	1.451068	-0.285170	-1.061455
C77	C	1.451045	-0.285190	-0.951733
C78	C	1.623220	-0.156615	-1.211500
C79	C	1.690489	-0.123176	-1.266388
C80	C	1.793008	-0.115160	-1.230796
C81	C	1.828280	-0.140589	-1.140317
C82	C	1.761018	-0.174032	-1.085434
C83	C	1.658484	-0.182039	-1.121025
C84	C	1.413392	-0.346877	-0.801742
C85	C	1.346134	-0.380323	-0.746857
C86	C	1.243613	-0.388345	-0.782447
C87	C	1.208344	-0.362924	-0.872929
C88	C	1.275602	-0.329478	-0.927814
C89	C	1.378123	-0.321456	-0.892217
C90	C	1.518157	-0.251851	-0.233124
C91	C	1.518327	-0.251725	-0.116348
H92	H	0.685600	-0.102734	-0.649842
O93	O	1.258152	-0.339186	-0.500596
C94	C	1.349759	-0.368770	-0.517239
H95	H	1.351940	-0.402661	-0.459407
H96	H	1.349864	-0.384588	-0.600721
H97	H	1.421549	-0.342986	-0.505050
O98	O	1.009442	-0.304647	-0.229102
C99	C	1.024266	-0.250242	-0.235632
H100	H	1.087575	-0.241290	-0.296099
H101	H	0.947739	-0.230841	-0.260178
H102	H	1.049468	-0.234603	-0.155901
O103	O	1.385807	-0.948891	-0.638372
C104	C	1.317938	-0.917373	-0.578493
H105	H	1.355031	-0.909196	-0.498908
H106	H	1.303798	-0.878970	-0.621275
H107	H	1.240105	-0.938464	-0.566878
H108	H	0.919051	-0.312439	-0.383982
H109	H	0.785007	-0.163304	-0.527700
O110	O	1.512978	-0.339171	-0.767066
C111	C	1.529684	-0.368781	-0.675437
H112	H	1.471883	-0.402687	-0.673149
H113	H	1.613179	-0.384578	-0.675402
H114	H	1.517500	-0.343022	-0.603668
O115	O	0.919897	-0.133081	-0.915932
C116	C	0.852126	-0.098168	-0.967812
H117	H	0.808832	-0.073470	-0.907478
H118	H	0.899762	-0.071674	-1.021555
H119	H	0.792986	-0.121126	-1.016355
O120	O	1.650699	-0.185828	-0.898409
C121	C	1.590917	-0.152059	-0.834974
H122	H	1.511269	-0.170502	-0.818511
H123	H	1.633707	-0.145064	-0.757828
H124	H	1.579434	-0.113307	-0.877284
H125	H	1.707491	-0.801064	-0.317213
O126	O	1.117559	-0.370602	-0.096263
C127	C	1.185302	-0.405536	-0.044403
H128	H	1.265363	-0.404955	-0.084072
H129	H	1.194032	-0.393281	0.041021
H130	H	1.151290	-0.446620	-0.048221
H131	H	1.188856	-0.415584	-0.737755
O132	O	1.108708	-0.370755	-0.907340
C133	C	1.056916	-0.405734	-0.839510
H134	H	1.096577	-0.405152	-0.759474
H135	H	0.971465	-0.393529	-0.830749
H136	H	1.060823	-0.446807	-0.873458
H137	H	0.750295	-0.088282	-0.835897
H138	H	1.329055	-0.702064	-0.695077
H139	H	1.707412	-0.702017	-0.317186
H140	H	1.640085	-0.549902	-0.384284
H141	H	1.287105	-0.415443	-0.176340
O142	O	1.795421	-0.198675	-0.997542
C143	C	1.900347	-0.184443	-0.977912
H144	H	1.917747	-0.145429	-1.017152
H145	H	1.913213	-0.180831	-0.889803
H146	H	1.954925	-0.215561	-1.010904
O147	O	1.385538	-0.554166	-0.638529
C148	C	1.326158	-0.518367	-0.697748
H149	H	1.369154	-0.479418	-0.701400
H150	H	1.314927	-0.534113	-0.780525
H151	H	1.246378	-0.512621	-0.659208
H152	H	1.351837	-0.400950	-0.362366
O153	O	1.385820	-1.056607	-0.638382
C154	C	1.318029	-1.088261	-0.578525
H155	H	1.311571	-1.071844	-0.495765
H156	H	1.237157	-1.088904	-0.616456
H157	H	1.350541	-1.129629	-0.574953
O158	O	1.927892	-0.132730	-1.105868
C159	C	1.979704	-0.097771	-1.173725
H160	H	1.919322	-0.073095	-1.217023
H161	H	2.033386	-0.071260	-1.126164
H162	H	2.028302	-0.120687	-1.232857
H163	H	1.639988	-0.450852	-0.384252
O164	O	1.858209	-0.082650	-1.284222
C165	C	1.805110	-0.061943	-1.371733
H166	H	1.716978	-0.063648	-1.357425
H167	H	1.830059	-0.019684	-1.384139
H168	H	1.825357	-0.085751	-1.444396
H169	H	1.640367	-0.953198	-0.384365
H170	H	1.640434	-1.052264	-0.384397
H171	H	1.329108	-0.801114	-0.695091
H172	H	1.396058	-0.450885	-0.627850
H173	H	1.661760	-0.102471	-1.340057
H174	H	1.539738	-0.163135	-1.240482
H175	H	1.396324	-0.312383	-1.106112
H176	H	1.246878	-0.308780	-1.001491
H177	H	1.374863	-0.401027	-0.673188
H178	H	1.118356	-0.191249	-0.628224
H179	H	1.013819	-0.194985	-0.777652
