data_functionalizedCrystal
_audit_creation_method	'MofGen! by Chris Wilmer'
_symmetry_space_group_name_H-M	'P1'
_symmetry_Int_Tables_number	1
_symmetry_cell_setting	triclinic
loop_
_symmetry_equiv_pos_as_xyz
  x,y,z
_cell_length_a	6.817900
_cell_length_b	12.840976
_cell_length_c	15.301131
_cell_angle_alpha	81.999746
_cell_angle_beta	75.011534
_cell_angle_gamma	88.343600
loop_
_atom_site_label
_atom_site_type_symbol
_atom_site_fract_x
_atom_site_fract_y
_atom_site_fract_z
V1	V	-3.903296	0.282047	0.126879
O2	O	-3.888163	0.320354	-0.003917
O3	O	-3.860463	0.238112	0.249484
O4	O	-3.798856	0.424221	0.125885
O5	O	-3.950197	0.132956	0.120538
V6	V	-4.393464	0.269317	0.111122
O7	O	-4.149978	0.309970	0.161445
O8	O	-4.596980	0.241394	0.076556
O9	O	-4.213091	0.313252	-0.011482
O10	O	-4.525994	0.231010	0.241918
O11	O	-4.463960	0.418408	0.117463
O12	O	-4.274698	0.127142	0.112117
C13	C	-3.708631	0.222823	0.279342
C14	C	-3.754523	0.187849	0.379578
C15	C	-3.625916	0.578351	0.121693
C16	C	-3.630045	0.460220	0.121687
C17	C	-3.773030	0.080489	0.413155
C18	C	-3.816179	0.047612	0.507337
C19	C	-3.840807	0.122098	0.567939
C20	C	-3.822303	0.229468	0.534357
C21	C	-3.779169	0.262342	0.440178
C22	C	-4.089869	-0.027002	0.116368
C23	C	-4.106868	0.091134	0.116341
V24	V	-3.886262	0.768203	0.126913
O25	O	-3.922565	0.921565	0.120586
O26	O	-3.791947	0.621359	0.125904
O27	O	-3.841893	0.767874	0.249518
O28	O	-3.872274	0.774036	-0.003883
V29	V	-4.374488	0.811011	0.111164
O30	O	-4.134877	0.740911	0.161479
O31	O	-4.575277	0.860989	0.076604
O32	O	-4.245988	0.946607	0.112170
O33	O	-4.455374	0.663564	0.117493
O34	O	-4.505666	0.811093	0.241962
O35	O	-4.196043	0.800092	-0.011444
C36	C	-4.028266	0.328536	-0.041336
C37	C	-3.961610	0.363517	-0.141572
C38	C	-3.689612	0.765247	0.279370
C39	C	-3.734172	0.768120	0.379607
C40	C	-4.012256	0.785753	-0.041306
C41	C	-3.946972	0.781843	-0.141544
C42	C	-3.935333	0.773339	0.431328
C43	C	-3.977189	0.776044	0.525510
C44	C	-3.817882	0.773524	0.567970
C45	C	-3.616705	0.768308	0.516242
C46	C	-3.574851	0.765610	0.422061
C47	C	-3.703955	0.773929	0.712546
C48	C	-3.745811	0.776625	0.806735
C49	C	-4.106293	0.784363	0.815996
C50	C	-4.064439	0.781665	0.721814
C51	C	-3.863263	0.776448	0.670093
C52	C	-4.104790	0.376308	-0.193275
C53	C	-4.042182	0.409160	-0.287460
C54	C	-3.836396	0.429227	-0.329939
C55	C	-3.693206	0.416431	-0.278229
C56	C	-3.755812	0.383573	-0.184047
H57	H	-3.752972	0.019824	0.363822
F58	F	-3.603402	0.369966	-0.129029
H59	H	-3.785445	0.455982	-0.406629
F60	F	-3.835859	-0.066662	0.543059
F61	F	-4.194606	0.422775	-0.342477
F62	F	-3.886713	0.087094	0.668173
H63	H	-3.525650	0.432774	-0.312830
H64	H	-3.842364	0.290106	0.583714
F65	F	-3.759462	0.376611	0.404454
H66	H	-4.272361	0.359974	-0.158701
H67	H	-4.065065	0.775383	0.396765
H68	H	-4.140990	0.780296	0.567617
H69	H	-4.194164	0.783712	0.687247
F70	F	-4.320400	0.789921	0.871042
H71	H	-3.540139	0.769690	0.670436
F72	F	-3.447159	0.765631	0.561433
F73	F	-3.576257	0.773955	0.851920
H74	H	-3.411047	0.761366	0.379949
