data_functionalizedCrystal
_audit_creation_method	'MofGen! by Chris Wilmer'
_symmetry_space_group_name_H-M	'P1'
_symmetry_Int_Tables_number	1
_symmetry_cell_setting	triclinic
loop_
_symmetry_equiv_pos_as_xyz
  x,y,z
_cell_length_a	19.188940
_cell_length_b	19.288864
_cell_length_c	17.766277
_cell_angle_alpha	89.976791
_cell_angle_beta	90.006813
_cell_angle_gamma	96.857520
loop_
_atom_site_label
_atom_site_type_symbol
_atom_site_fract_x
_atom_site_fract_y
_atom_site_fract_z
O1	O	0.087099	-0.921363	0.062836
O2	O	0.098848	-0.719103	0.062785
O3	O	-0.008682	-0.826066	0.062806
O4	O	0.194629	-0.814400	0.062815
O5	O	-0.008688	-0.826047	-0.062382
O6	O	0.098843	-0.719084	-0.062404
O7	O	0.087093	-0.921344	-0.062352
Cu8	Cu	0.092968	-0.820212	-0.073809
Cu9	Cu	0.092974	-0.820235	0.074241
O10	O	0.194624	-0.814381	-0.062374
C11	C	0.098467	-0.693217	0.000184
C12	C	0.097333	-0.616114	0.000164
N13	N	0.092963	-0.820202	-0.177939
C14	C	-0.034696	-0.825678	0.000212
C15	C	-0.112200	-0.824540	0.000212
C16	C	-0.665461	-0.816438	-0.068012
C17	C	-0.592637	-0.817499	-0.068016
C18	C	-0.556215	-0.818043	0.000223
C19	C	-0.592620	-0.817508	0.068472
C20	C	-0.665442	-0.816440	0.068474
N21	N	-0.447191	-0.859253	0.051026
N22	N	-0.378014	-0.860269	0.051019
C23	C	-0.336806	-0.821260	0.000221
N24	N	-0.367390	-0.781205	-0.050581
N25	N	-0.436574	-0.780192	-0.050577
C26	C	-0.477251	-0.819201	0.000229
C27	C	-0.221444	-0.822941	-0.068027
C28	C	-0.148617	-0.823998	-0.068028
C29	C	-0.148603	-0.824014	0.068462
C30	C	-0.221427	-0.822950	0.068461
C31	C	-0.257843	-0.822417	0.000214
C32	C	0.220637	-0.814769	0.000222
C33	C	0.298141	-0.815907	0.000227
C34	C	0.087474	-0.947230	0.000250
C35	C	0.088609	-1.024333	0.000275
C36	C	0.160427	-0.571424	0.000179
C37	C	0.159360	-0.498977	0.000187
C38	C	0.095197	-0.471222	0.000196
C39	C	0.032094	-0.515922	0.000177
C40	C	0.033162	-0.588367	0.000161
C41	C	0.044759	-0.362962	0.044078
C42	C	0.043693	-0.290517	0.044099
C43	C	0.091900	-0.247777	0.000241
C44	C	0.141184	-0.277488	-0.043627
C45	C	0.142252	-0.349934	-0.043643
C46	C	0.094031	-0.392668	0.000213
C47	C	0.153842	-0.124531	0.000264
C48	C	0.152773	-0.052083	0.000267
C49	C	0.025506	-0.069029	0.000265
C50	C	0.026576	-0.141476	0.000254
C51	C	0.090746	-0.169222	0.000257
C52	C	0.045372	-0.867580	-0.217316
C53	C	0.045368	-0.867584	-0.296118
C54	C	0.092968	-0.820217	-0.335540
C55	C	0.140563	-0.772829	-0.296153
C56	C	0.140560	-0.772822	-0.217352
C57	C	0.156585	-0.810925	-0.460376
C58	C	0.156588	-0.810937	-0.539175
C59	C	0.092977	-0.820235	-0.578586
C60	C	0.029358	-0.829536	-0.539188
C61	C	0.029356	-0.829529	-0.460388
C62	C	0.092976	-0.820219	-0.420985
C63	C	0.045378	-0.867621	-0.703409
C64	C	0.045374	-0.867620	-0.782212
C65	C	0.140575	-0.772868	-0.782245
C66	C	0.140573	-0.772865	-0.703444
C67	C	0.092975	-0.820245	-0.664030
N68	N	0.092973	-0.820251	0.178372
H69	H	-0.695107	-0.816003	-0.123584
Cl70	Cl	-0.102858	-0.824652	-0.153823
Cl71	Cl	-0.050617	-0.841213	-0.410862
H72	H	-0.562960	-0.817948	0.124033
H73	H	0.003566	-0.266331	0.079822
H74	H	-0.118947	-0.824448	0.124024
Cl75	Cl	-0.546872	-0.818174	-0.153810
Cl76	Cl	-0.015850	-0.416686	0.099219
Cl77	Cl	0.201791	-0.223765	-0.098765
Cl78	Cl	0.234511	-0.159416	0.000260
H79	H	-0.022440	-0.837107	-0.571275
H80	H	0.212679	-0.594010	0.000183
H81	H	-0.251095	-0.822501	-0.123597
H82	H	0.208388	-0.803341	-0.428295
H83	H	-0.695076	-0.816006	0.124044
H84	H	0.179329	-0.734297	-0.814342
Cl85	Cl	-0.267187	-0.822289	0.154253
Cl86	Cl	0.238684	-0.442786	0.000204
H87	H	0.006613	-0.906158	-0.185228
Cl88	Cl	0.204202	-0.387284	-0.098792
Cl89	Cl	0.232099	0.004100	0.000282
H90	H	0.006619	-0.906198	-0.671318
Cl91	Cl	0.200395	-0.713256	-0.167846
Cl92	Cl	-0.055158	-0.034145	0.000267
Cl93	Cl	-0.014464	-0.927182	-0.831719
H94	H	-0.024802	-0.177863	0.000246
Cl95	Cl	-0.048569	-0.481031	0.000184
Cl96	Cl	-0.014466	-0.927152	-0.345630
Cl97	Cl	0.200408	-0.713305	-0.653936
Cl98	Cl	-0.046162	-0.644552	0.000144
H99	H	0.208390	-0.803368	-0.571247
Cl100	Cl	0.200400	-0.713278	-0.345709
