data_functionalizedCrystal
_audit_creation_method	'MofGen! by Chris Wilmer'
_symmetry_space_group_name_H-M	'P1'
_symmetry_Int_Tables_number	1
_symmetry_cell_setting	triclinic
loop_
_symmetry_equiv_pos_as_xyz
  x,y,z
_cell_length_a	29.839131
_cell_length_b	25.639242
_cell_length_c	25.639233
_cell_angle_alpha	90.022166
_cell_angle_beta	89.980415
_cell_angle_gamma	89.963053
loop_
_atom_site_label
_atom_site_type_symbol
_atom_site_fract_x
_atom_site_fract_y
_atom_site_fract_z
Zn1	Zn	-0.178962	-0.799215	-0.295739
Zn2	Zn	-0.254076	-0.799134	-0.208302
Zn3	Zn	-0.178955	-0.711791	-0.208303
Zn4	Zn	-0.254059	-0.711732	-0.295692
O5	O	-0.216513	-0.755468	-0.252009
O6	O	-0.188935	-0.872370	-0.284160
O7	O	-0.244115	-0.787539	-0.135137
O8	O	-0.116089	-0.723447	-0.219922
O9	O	-0.244122	-0.872310	-0.219920
O10	O	-0.116094	-0.787677	-0.284161
O11	O	-0.188924	-0.723369	-0.135138
O12	O	-0.188908	-0.638618	-0.219876
O13	O	-0.244093	-0.723346	-0.368864
O14	O	-0.244087	-0.638575	-0.284081
O15	O	-0.188919	-0.787619	-0.368898
O16	O	-0.316941	-0.787482	-0.219875
O17	O	-0.316929	-0.723268	-0.284080
C18	C	-0.216495	-0.619626	-0.251974
C19	C	-0.216499	-0.561512	-0.251971
C20	C	-0.333236	-0.755374	-0.251983
C21	C	-0.383170	-0.755381	-0.251990
C22	C	-0.216505	-0.755485	-0.388382
C23	C	-0.216502	-0.755492	-0.446496
C24	C	-0.692807	-0.788965	-0.218627
C25	C	-0.880480	-0.789030	-0.218647
O26	O	-0.904740	-0.817509	-0.190260
N27	N	-0.903955	-0.755577	-0.252049
C28	C	-0.880509	-0.722108	-0.285450
O29	O	-0.904782	-0.693659	-0.313865
C30	C	-0.692837	-0.722046	-0.285432
C31	C	-0.669364	-0.755498	-0.252024
C32	C	-0.669335	-0.822415	-0.185222
C33	C	-0.622419	-0.822396	-0.185215
C34	C	-0.598976	-0.788928	-0.218613
C35	C	-0.622449	-0.755479	-0.252018
C36	C	-0.669391	-0.688580	-0.318836
C37	C	-0.622470	-0.688568	-0.318829
C38	C	-0.598998	-0.722020	-0.285422
C39	C	-0.552090	-0.721993	-0.285409
N40	N	-0.528615	-0.755446	-0.252007
C41	C	-0.552058	-0.788914	-0.218609
C42	C	-0.979039	-0.722141	-0.285457
C43	C	-1.025957	-0.722156	-0.285461
C44	C	-1.025925	-0.789079	-0.218658
C45	C	-0.979007	-0.789062	-0.218652
C46	C	-0.955565	-0.755595	-0.252055
C47	C	-0.453533	-0.788872	-0.218597
C48	C	-0.406613	-0.788849	-0.218592
C49	C	-0.406649	-0.721928	-0.285396
C50	C	-0.453564	-0.721949	-0.285400
C51	C	-0.477005	-0.755425	-0.251999
O52	O	-0.527802	-0.693533	-0.313784
O53	O	-0.527777	-0.817366	-0.190207
C54	C	-0.739723	-0.788984	-0.218633
C55	C	-0.763195	-0.755535	-0.252038
C56	C	-0.739752	-0.722067	-0.285436
C57	C	-0.810113	-0.755549	-0.252042
C58	C	-0.833556	-0.789017	-0.218644
C59	C	-0.810081	-0.822470	-0.185242
C60	C	-0.763166	-0.822451	-0.185235
C61	C	-0.763227	-0.688614	-0.318838
C62	C	-0.810143	-0.688635	-0.318841
C63	C	-0.833585	-0.722102	-0.285443
C64	C	-0.099335	-0.755577	-0.252047
C65	C	-0.049400	-0.755624	-0.252063
C66	C	-0.216531	-0.891841	-0.252045
C67	C	-0.216539	-0.949955	-0.252060
C68	C	-0.245293	-0.201135	-0.285409
C69	C	-0.245295	-0.146531	-0.285417
O70	O	-0.269755	-0.118282	-0.313817
N71	N	-0.216525	-0.119229	-0.252043
C72	C	-0.187748	-0.146535	-0.218663
O73	O	-0.163276	-0.118299	-0.190277
C74	C	-0.187743	-0.201138	-0.218658
C75	C	-0.216518	-0.228437	-0.252030
C76	C	-0.274065	-0.228434	-0.318778
C77	C	-0.274063	-0.283034	-0.318769
C78	C	-0.245288	-0.310336	-0.285390
C79	C	-0.216516	-0.283037	-0.252021
C80	C	-0.158963	-0.228443	-0.185281
C81	C	-0.158961	-0.283050	-0.185279
C82	C	-0.187736	-0.310349	-0.218651
C83	C	-0.187739	-0.364940	-0.218633
N84	N	-0.216509	-0.392241	-0.252006
C85	C	-0.245283	-0.364939	-0.285385
C86	C	-0.187759	-0.031864	-0.218677
C87	C	-0.187766	0.022738	-0.218679
C88	C	-0.245313	0.022739	-0.285434
C89	C	-0.245308	-0.031865	-0.285429
C90	C	-0.216529	-0.059166	-0.252051
C91	C	-0.245277	-0.479604	-0.285363
C92	C	-0.245273	-0.534210	-0.285350
C93	C	-0.187724	-0.534206	-0.218597
C94	C	-0.187729	-0.479605	-0.218609
C95	C	-0.216507	-0.452306	-0.251996
O96	O	-0.163290	-0.393223	-0.190249
O97	O	-0.269746	-0.393182	-0.313771
C98	C	-0.187687	-0.789002	-0.806883
C99	C	-0.187675	-0.789008	-0.861488
O100	O	-0.163229	-0.817457	-0.889744
N101	N	-0.216396	-0.755550	-0.888779
C102	C	-0.245129	-0.722079	-0.861463
O103	O	-0.269558	-0.693621	-0.889691
C104	C	-0.245139	-0.722071	-0.806860
C105	C	-0.216419	-0.755535	-0.779571
C106	C	-0.158969	-0.822463	-0.779594
C107	C	-0.158982	-0.822457	-0.724994
C108	C	-0.187714	-0.788990	-0.697682
C109	C	-0.216432	-0.755529	-0.724971
C110	C	-0.273869	-0.688598	-0.779545
C111	C	-0.273876	-0.688592	-0.724938
C112	C	-0.245156	-0.722056	-0.697650
C113	C	-0.245176	-0.722056	-0.643058
N114	N	-0.216455	-0.755514	-0.615767
C115	C	-0.187723	-0.788981	-0.643079
C116	C	-0.245106	-0.722100	-0.976134
C117	C	-0.245099	-0.722110	-1.030736
C118	C	-0.187644	-0.789039	-1.030757
C119	C	-0.187653	-0.789030	-0.976153
C120	C	-0.216384	-0.755558	-0.948843
C121	C	-0.187753	-0.788967	-0.528414
C122	C	-0.187770	-0.788959	-0.473808
C123	C	-0.245223	-0.722029	-0.473793
C124	C	-0.245208	-0.722038	-0.528393
C125	C	-0.216470	-0.755509	-0.555702
O126	O	-0.269609	-0.693620	-0.614767
O127	O	-0.163295	-0.817430	-0.614845
C128	C	-0.216488	-0.755482	-0.116167
C129	C	-0.216365	-0.755576	-0.058053
H130	H	-0.472612	-0.816133	-0.191400
H131	H	-0.268599	-0.694794	-0.550613
C132	C	-0.983794	-0.655986	-0.351482
C133	C	-0.953276	-0.685345	-0.322171
H134	H	-0.967889	-0.633266	-0.374143
H135	H	-1.002065	-0.678759	-0.371508
H136	H	-1.002120	-0.636016	-0.328671
H137	H	-0.934952	-0.705318	-0.344981
H138	H	-0.934996	-0.662569	-0.302143
C139	C	-0.251636	-0.093297	-0.355742
C140	C	-0.276935	-0.061870	-0.322115
H141	H	-0.271162	-0.111821	-0.378390
H142	H	-0.232094	-0.072016	-0.375781
H143	H	-0.234501	-0.117374	-0.335859
H144	H	-0.294068	-0.037791	-0.341998
H145	H	-0.296485	-0.083153	-0.302074
H146	H	-0.268709	-0.457384	-0.312552
C147	C	-0.330674	-0.622443	-0.730407
C148	C	-0.305467	-0.651806	-0.694919
H149	H	-0.350180	-0.599739	-0.711874
H150	H	-0.311093	-0.602460	-0.751695
H151	H	-0.347849	-0.645218	-0.751714
H152	H	-0.288289	-0.629031	-0.673615
H153	H	-0.325050	-0.671790	-0.673622
C154	C	-0.411301	-0.855005	-0.152561
C155	C	-0.380813	-0.825624	-0.181870
H156	H	-0.395374	-0.877709	-0.129894
H157	H	-0.429627	-0.832245	-0.132541
H158	H	-0.429576	-0.874993	-0.175372
H159	H	-0.362540	-0.805633	-0.159058
H160	H	-0.362480	-0.848386	-0.201891
C161	C	-0.627115	-0.888554	-0.119194
C162	C	-0.596622	-0.859175	-0.148500
H163	H	-0.611190	-0.911265	-0.096531
H164	H	-0.645437	-0.865794	-0.099171
H165	H	-0.645393	-0.908535	-0.142008
H166	H	-0.578347	-0.839191	-0.125686
H167	H	-0.578293	-0.881939	-0.168525
H168	H	-0.164266	-0.816279	-0.953939
H169	H	-0.164350	-0.816220	-0.550642
H170	H	-0.268504	-0.694842	-0.953901
C171	C	-0.824567	-0.848016	-0.096739
C172	C	-0.835863	-0.859259	-0.148538
H173	H	-0.840490	-0.870726	-0.074085
H174	H	-0.793271	-0.852804	-0.091946
H175	H	-0.832286	-0.812893	-0.089054
H176	H	-0.828141	-0.894381	-0.156224
H177	H	-0.867166	-0.854475	-0.153333
C178	C	-0.133433	-0.144750	-0.155609
C179	C	-0.127351	-0.198445	-0.148575
H180	H	-0.113922	-0.126233	-0.132938
H181	H	-0.126885	-0.135812	-0.190741
H182	H	-0.163615	-0.135791	-0.147910
H183	H	-0.097170	-0.207406	-0.156277
H184	H	-0.133895	-0.207388	-0.113435
H185	H	-0.164382	-0.816212	-0.451592
H186	H	-0.268490	-0.694866	-1.052950
C187	C	-0.280093	-0.618271	-0.840932
C188	C	-0.305440	-0.651818	-0.809538
H189	H	-0.299587	-0.595568	-0.859450
H190	H	-0.260525	-0.598288	-0.819629
H191	H	-0.262983	-0.638209	-0.865013
H192	H	-0.322548	-0.631880	-0.785454
H193	H	-0.325017	-0.671803	-0.830842
C194	C	-0.130846	-0.485093	-0.152624
C195	C	-0.156102	-0.449595	-0.181924
H196	H	-0.111317	-0.466568	-0.129981
H197	H	-0.150395	-0.506361	-0.132579
H198	H	-0.113693	-0.506419	-0.175442
H199	H	-0.173257	-0.428272	-0.159106
H200	H	-0.136551	-0.428318	-0.201970
C201	C	-0.334514	-0.167001	-0.325923
C202	C	-0.305699	-0.198428	-0.355470
H203	H	-0.354044	-0.148477	-0.348575
H204	H	-0.351662	-0.188282	-0.303105
H205	H	-0.317377	-0.142924	-0.306054
H206	H	-0.322836	-0.222507	-0.375336
H207	H	-0.288550	-0.177145	-0.378297
H208	H	-0.135522	-0.305276	-0.158101
C209	C	-0.710450	-0.681269	-0.389160
C210	C	-0.737464	-0.651820	-0.355550
H211	H	-0.694549	-0.658550	-0.411827
H212	H	-0.689752	-0.701180	-0.369269
H213	H	-0.728729	-0.704042	-0.409184
H214	H	-0.719184	-0.629050	-0.335523
H215	H	-0.758164	-0.631900	-0.375444
H216	H	-0.744058	-0.849691	-0.158032
C217	C	-0.506308	-0.714657	-0.355726
C218	C	-0.479371	-0.685177	-0.322117
H219	H	-0.522239	-0.691956	-0.378394
H220	H	-0.487975	-0.737409	-0.375746
H221	H	-0.526982	-0.734592	-0.335832
H222	H	-0.458694	-0.665245	-0.342011
H223	H	-0.497705	-0.662416	-0.302095
C224	C	-0.270741	-0.692303	-0.390075
C225	C	-0.276802	-0.685241	-0.443764
H226	H	-0.290233	-0.669586	-0.371537
H227	H	-0.277327	-0.727420	-0.381139
H228	H	-0.240554	-0.684682	-0.381138
H229	H	-0.306989	-0.692865	-0.452702
H230	H	-0.270219	-0.650115	-0.452704
H231	H	-0.297494	-0.305256	-0.345945
H232	H	-0.164298	-0.556445	-0.191419
H233	H	-0.688495	-0.661337	-0.346038
C234	C	-0.102186	-0.888606	-0.730516
C235	C	-0.127406	-0.859236	-0.695003
H236	H	-0.082689	-0.911309	-0.712002
H237	H	-0.121759	-0.908590	-0.751812
H238	H	-0.085001	-0.865835	-0.751812
H239	H	-0.144594	-0.882007	-0.673709
H240	H	-0.107831	-0.839251	-0.673698
C241	C	-0.098517	-0.829803	-0.840999
C242	C	-0.127382	-0.859254	-0.809607
H243	H	-0.079014	-0.852521	-0.859521
H244	H	-0.115616	-0.809887	-0.865072
H245	H	-0.081338	-0.807034	-0.819690
H246	H	-0.144563	-0.882021	-0.830917
H247	H	-0.110281	-0.879179	-0.785531
C248	C	-0.334737	-0.692200	-0.315047
C249	C	-0.380874	-0.685144	-0.322109
H250	H	-0.318825	-0.669495	-0.337717
H251	H	-0.327071	-0.684565	-0.279913
H252	H	-0.327025	-0.727325	-0.322732
H253	H	-0.388587	-0.650019	-0.314421
H254	H	-0.388543	-0.692776	-0.357251
C255	C	-0.721999	-0.892812	-0.178072
C256	C	-0.695080	-0.859243	-0.148526
H257	H	-0.737882	-0.915560	-0.155419
H258	H	-0.742711	-0.872897	-0.197939
H259	H	-0.703656	-0.912751	-0.200891
H260	H	-0.713423	-0.839301	-0.125709
H261	H	-0.674365	-0.879160	-0.128650
C262	C	-0.983699	-0.855211	-0.152621
C263	C	-0.953208	-0.825835	-0.181932
H264	H	-0.967772	-0.877917	-0.129954
H265	H	-1.002021	-0.832448	-0.132601
H266	H	-1.001976	-0.875197	-0.175431
H267	H	-0.934933	-0.805846	-0.159123
H268	H	-0.934878	-0.848601	-0.201954
H269	H	-0.268742	0.044978	-0.312615
H270	H	-0.829250	-0.661390	-0.346045
C271	C	-1.078697	-0.714857	-0.355788
C272	C	-1.051756	-0.685382	-0.322179
H273	H	-1.094624	-0.692154	-0.378457
H274	H	-1.060368	-0.737614	-0.375806
H275	H	-1.099376	-0.734786	-0.335894
H276	H	-1.031075	-0.665455	-0.342074
H277	H	-1.070087	-0.662616	-0.302160
H278	H	-0.268707	-0.556434	-0.312526
H279	H	-0.164324	-0.054089	-0.191493
C280	C	-1.097837	-0.818869	-0.189066
C281	C	-1.051700	-0.825908	-0.181985
H282	H	-1.113749	-0.841620	-0.166442
H283	H	-1.105569	-0.783765	-0.181337
H284	H	-1.105482	-0.826459	-0.224221
H285	H	-1.044054	-0.818314	-0.146831
H286	H	-1.043965	-0.861020	-0.189711
H287	H	-0.603386	-0.661316	-0.346032
H288	H	-0.164338	0.044960	-0.191499
H289	H	-0.164248	-0.816288	-1.053004
