data_functionalizedCrystal
_audit_creation_method	'MofGen! by Chris Wilmer'
_symmetry_space_group_name_H-M	'P1'
_symmetry_Int_Tables_number	1
_symmetry_cell_setting	triclinic
loop_
_symmetry_equiv_pos_as_xyz
  x,y,z
_cell_length_a	19.805407
_cell_length_b	29.839131
_cell_length_c	19.805399
_cell_angle_alpha	90.029565
_cell_angle_beta	90.019573
_cell_angle_gamma	90.041420
loop_
_atom_site_label
_atom_site_type_symbol
_atom_site_fract_x
_atom_site_fract_y
_atom_site_fract_z
Zn1	Zn	1.034665	-0.178864	0.382710
Zn2	Zn	1.534665	0.321136	0.882710
Zn3	Zn	1.034550	-0.253991	0.269518
Zn4	Zn	1.534550	0.246009	0.769518
Zn5	Zn	0.921480	-0.178876	0.269535
Zn6	Zn	1.421480	0.321124	0.769535
Zn7	Zn	0.921414	-0.253967	0.382665
Zn8	Zn	1.421414	0.246033	0.882665
O9	O	0.978027	-0.216425	0.326107
O10	O	1.478027	0.283575	0.826107
O11	O	1.129366	-0.188834	0.367707
O12	O	1.629366	0.311166	0.867707
O13	O	1.019531	-0.244042	0.174804
O14	O	1.519531	0.255958	0.674804
O15	O	0.936570	-0.116007	0.284574
O16	O	1.436570	0.383993	0.784574
O17	O	1.129282	-0.244030	0.284545
O18	O	1.629282	0.255970	0.784545
O19	O	1.019727	-0.115998	0.367723
O20	O	1.519727	0.384002	0.867723
O21	O	0.936458	-0.188856	0.174816
O22	O	1.436458	0.311144	0.674816
O23	O	0.826754	-0.188832	0.284530
O24	O	1.326754	0.311168	0.784530
O25	O	0.936457	-0.243990	0.477388
O26	O	1.436457	0.256010	0.977388
O27	O	0.826706	-0.244002	0.367646
O28	O	1.326706	0.255998	0.867646
O29	O	1.019662	-0.188811	0.477421
O30	O	1.519662	0.311189	0.977421
O31	O	1.019467	-0.316855	0.284501
O32	O	1.519467	0.183145	0.784501
O33	O	0.936346	-0.316838	0.367630
O34	O	1.436346	0.183162	0.867630
C35	C	0.802171	-0.216416	0.326085
C36	C	1.302171	0.283584	0.826085
C37	C	0.726939	-0.216423	0.326092
C38	C	1.226939	0.283577	0.826092
C39	C	0.691587	-0.245193	0.369300
C40	C	1.191587	0.254807	0.869300
C41	C	0.620899	-0.245194	0.369310
C42	C	1.120899	0.254806	0.869310
C43	C	0.585564	-0.216427	0.326107
C44	C	1.085564	0.283573	0.826107
C45	C	0.620920	-0.187654	0.282897
C46	C	1.120920	0.312346	0.782897
C47	C	0.691607	-0.187651	0.282891
C48	C	1.191607	0.312349	0.782891
C49	C	0.335847	-0.187664	0.282919
C50	C	0.835847	0.312336	0.782919
C51	C	0.265155	-0.187669	0.282927
C52	C	0.765155	0.312331	0.782927
C53	C	0.265139	-0.245207	0.369338
C54	C	0.765139	0.254793	0.869338
C55	C	0.335826	-0.245204	0.369332
C56	C	0.835826	0.254796	0.869332
C57	C	0.371176	-0.216429	0.326125
C58	C	0.871176	0.283571	0.826125
C59	C	0.447825	-0.216428	0.326116
C60	C	0.947825	0.283572	0.826116
C61	C	0.508916	-0.216430	0.326112
C62	C	1.008916	0.283570	0.826112
C63	C	0.977905	-0.333147	0.326073
C64	C	1.477905	0.166853	0.826073
C65	C	0.977915	-0.383082	0.326082
C66	C	1.477915	0.116918	0.826082
C67	C	1.021387	-0.692722	0.282885
C68	C	1.521387	-0.192722	0.782885
C69	C	1.021471	-0.880395	0.282912
C70	C	1.521471	-0.380395	0.782912
O71	O	1.058335	-0.904656	0.246159
O72	O	1.558335	-0.404656	0.746159
N73	N	0.978168	-0.903867	0.326158
N74	N	1.478168	-0.403867	0.826158
C75	C	0.934844	-0.880418	0.369404
C76	C	1.434844	-0.380418	0.869404
O77	O	0.898019	-0.904688	0.406194
O78	O	1.398019	-0.404688	0.906194
C79	C	0.934764	-0.692746	0.369381
C80	C	1.434764	-0.192746	0.869381
C81	C	0.978065	-0.669276	0.326127
C82	C	1.478065	-0.169276	0.826127
C83	C	1.064685	-0.669252	0.239635
C84	C	1.564685	-0.169252	0.739635
C85	C	1.064661	-0.622336	0.239626
C86	C	1.564661	-0.122336	0.739626
C87	C	1.021339	-0.598891	0.282868
C88	C	1.521339	-0.098891	0.782868
C89	C	0.978041	-0.622360	0.326118
C90	C	1.478041	-0.122360	0.826118
C91	C	0.891444	-0.669297	0.412630
C92	C	1.391444	-0.169297	0.912630
C93	C	0.891429	-0.622376	0.412621
C94	C	1.391429	-0.122376	0.912621
C95	C	0.934730	-0.598907	0.369367
C96	C	1.434730	-0.098907	0.869367
C97	C	0.934695	-0.551999	0.369351
C98	C	1.434695	-0.051999	0.869351
N99	N	0.977998	-0.528527	0.326104
N100	N	1.477998	-0.028527	0.826104
C101	C	1.021320	-0.551973	0.282863
C102	C	1.521320	-0.051973	0.782863
C103	C	0.934888	-0.978948	0.369412
C104	C	1.434888	-0.478948	0.869412
C105	C	0.934907	-1.025866	0.369418
C106	C	1.434907	-0.525866	0.869418
C107	C	1.021534	-1.025840	0.282926
C108	C	1.521534	-0.525840	0.782926
C109	C	1.021512	-0.978921	0.282918
C110	C	1.521512	-0.478921	0.782918
C111	C	0.978191	-0.955476	0.326166
C112	C	1.478191	-0.455476	0.826166
C113	C	1.021266	-0.453447	0.282847
C114	C	1.521266	0.046553	0.782847
C115	C	1.021237	-0.406527	0.282840
C116	C	1.521237	0.093473	0.782840
C117	C	0.934611	-0.406558	0.369334
C118	C	1.434611	0.093442	0.869334
C119	C	0.934638	-0.453473	0.369339
C120	C	1.434638	0.046527	0.869339
C121	C	0.977971	-0.476917	0.326093
C122	C	1.477971	0.023083	0.826093
O123	O	0.897855	-0.527708	0.406090
O124	O	1.397855	-0.027708	0.906090
O125	O	1.058150	-0.527694	0.246090
O126	O	1.558150	-0.027694	0.746090
C127	C	1.021411	-0.739637	0.282894
C128	C	1.521411	-0.239637	0.782894
C129	C	0.978113	-0.763107	0.326144
C130	C	1.478113	-0.263107	0.826144
C131	C	0.934791	-0.739661	0.369386
C132	C	1.434791	-0.239661	0.869386
C133	C	0.978132	-0.810025	0.326149
C134	C	1.478132	-0.310025	0.826149
C135	C	1.021454	-0.833470	0.282908
C136	C	1.521454	-0.333470	0.782908
C137	C	1.064757	-0.809998	0.239661
C138	C	1.564757	-0.309998	0.739661
C139	C	1.064733	-0.763083	0.239653
C140	C	1.564733	-0.263083	0.739653
C141	C	0.891488	-0.763133	0.412632
C142	C	1.391488	-0.263133	0.912632
C143	C	0.891515	-0.810049	0.412637
C144	C	1.391515	-0.310049	0.912637
C145	C	0.934837	-0.833494	0.369395
C146	C	1.434837	-0.333494	0.869395
C147	C	1.154570	-0.216434	0.326129
C148	C	1.654570	0.283566	0.826129
C149	C	1.229802	-0.216437	0.326139
C150	C	1.729802	0.283563	0.826139
C151	C	0.978065	-0.216396	0.502650
C152	C	1.478065	0.283604	1.002650
C153	C	0.978081	-0.216384	0.577882
C154	C	1.478081	0.283616	1.077882
C155	C	0.978168	-0.099246	0.326156
C156	C	1.478168	0.400754	0.826156
C157	C	0.978228	-0.049312	0.326176
C158	C	1.478228	0.450688	0.826176
C159	C	0.978028	-0.216420	0.150251
C160	C	1.478028	0.283580	0.650251
C161	C	0.978143	-0.216306	0.075019
C162	C	1.478143	0.283694	0.575019
C163	C	1.021407	-0.187652	0.613244
C164	C	1.521407	0.312348	1.113244
C165	C	1.021414	-0.187638	0.683933
C166	C	1.521414	0.312362	1.183933
C167	C	0.978098	-0.216361	0.719258
C168	C	1.478098	0.283639	1.219258
C169	C	0.934767	-0.245095	0.683890
C170	C	1.434767	0.254905	1.183890
C171	C	0.934757	-0.245105	0.613203
C172	C	1.434757	0.254895	1.113203
C173	C	0.934806	-0.245053	0.968963
C174	C	1.434806	0.254947	1.468963
C175	C	0.934820	-0.245041	1.039656
C176	C	1.434820	0.254959	1.539656
C177	C	1.021462	-0.187586	1.039694
C178	C	1.521462	0.312414	1.539694
C179	C	1.021453	-0.187597	0.969006
C180	C	1.521453	0.312403	1.469006
C181	C	0.978120	-0.216329	0.933645
C182	C	1.478120	0.283671	1.433645
C183	C	0.978112	-0.216342	0.856997
C184	C	1.478112	0.283658	1.356997
C185	C	0.978109	-0.216350	0.795905
C186	C	1.478109	0.283650	1.295905
H187	H	0.236387	-0.164241	0.247745
H188	H	0.736387	0.335759	0.747745
N189	N	0.847184	-0.598422	0.456799
N190	N	1.347184	-0.098422	0.956799
N191	N	0.870962	-0.572207	0.499947
N192	N	1.370962	-0.072207	0.999947
H193	H	0.839714	-0.555288	0.531147
H194	H	1.339714	-0.055288	1.031147
H195	H	0.899531	-0.268455	0.940181
H196	H	1.399531	0.231545	1.440181
N197	N	0.727731	-0.158271	0.238752
N198	N	1.227731	0.341729	0.738752
N199	N	0.790844	-0.158272	0.238752
N200	N	1.290844	0.341728	0.738752
H201	H	0.816357	-0.137520	0.207579
H202	H	1.316357	0.362480	0.707579
N203	N	0.371908	-0.274595	0.413463
N204	N	0.871908	0.225405	0.913463
N205	N	0.340336	-0.300280	0.452040
N206	N	0.840336	0.199720	0.952040
H207	H	0.365818	-0.321038	0.483209
H208	H	0.865818	0.178962	0.983209
N209	N	1.065730	-0.158231	1.075804
N210	N	1.565730	0.341769	1.575804
N211	N	1.128181	-0.161217	1.067917
N212	N	1.628181	0.338783	1.567917
H213	H	1.159447	-0.140486	1.093418
H214	H	1.659447	0.359514	1.593418
H215	H	1.056809	-1.044937	0.247717
H216	H	1.556809	-0.544937	0.747717
H217	H	1.056727	-0.164209	0.940249
H218	H	1.556727	0.335791	1.440249
H219	H	0.899544	-0.268431	1.068415
H220	H	1.399544	0.231569	1.568415
N221	N	0.727689	-0.274573	0.413432
N222	N	1.227689	0.225427	0.913432
N223	N	0.790802	-0.274567	0.413424
N224	N	1.290802	0.225433	0.913424
H225	H	0.816298	-0.295316	0.444595
H226	H	1.316298	0.204684	0.944595
H227	H	1.099967	-0.688336	0.204423
H228	H	1.599967	-0.188336	0.704423
N229	N	1.108969	-0.739110	0.195478
N230	N	1.608969	-0.239110	0.695478
N231	N	1.152078	-0.712890	0.219320
N232	N	1.652078	-0.212890	0.719320
H233	H	1.183321	-0.695960	0.188119
H234	H	1.683321	-0.195960	0.688119
N235	N	1.065663	-0.158312	0.577175
N236	N	1.565663	0.341688	1.077175
N237	N	1.104343	-0.132659	0.608761
N238	N	1.604343	0.367341	1.108761
H239	H	1.135599	-0.111936	0.583289
H240	H	1.635599	0.388064	1.083289
N241	N	0.890660	-1.049837	0.413585
N242	N	1.390660	-0.549837	0.913585
N243	N	0.828205	-1.044637	0.409033
N244	N	1.328205	-0.544637	0.909033
H245	H	0.796955	-1.061565	0.440229
H246	H	1.296955	-0.561565	0.940229
N247	N	1.108999	-0.833953	0.195481
N248	N	1.608999	-0.333953	0.695481
N249	N	1.085218	-0.860169	0.152336
N250	N	1.585218	-0.360169	0.652336
H251	H	1.116463	-0.877089	0.121137
H252	H	1.616463	-0.377089	0.621137
H253	H	0.592119	-0.268622	0.404494
H254	H	1.092119	0.231378	0.904494
N255	N	0.229017	-0.274598	0.413470
N256	N	0.729017	0.225402	0.913470
N257	N	0.165904	-0.274598	0.413472
N258	N	0.665904	0.225402	0.913472
H259	H	0.140394	-0.295356	0.444638
H260	H	0.640394	0.204644	0.944638
N261	N	0.584839	-0.158268	0.238757
N262	N	1.084839	0.341732	0.738757
N263	N	0.616414	-0.132583	0.200181
N264	N	1.116414	0.367417	0.700181
H265	H	0.590933	-0.111829	0.169005
H266	H	1.090933	0.388171	0.669005
N267	N	0.890519	-0.274428	0.719981
N268	N	1.390519	0.225572	1.219981
N269	N	0.890533	-0.274415	0.783094
N270	N	1.390533	0.225585	1.283094
H271	H	0.859283	-0.295133	0.808584
H272	H	1.359283	0.204867	1.308584
N273	N	0.371940	-0.158272	0.238777
N274	N	0.871940	0.341728	0.738777
N275	N	0.340380	-0.132593	0.200204
N276	N	0.840380	0.367407	0.700204
H277	H	0.365873	-0.111835	0.169024
H278	H	0.865873	0.388165	0.669024
H279	H	1.056497	-0.387420	0.247615
H280	H	1.556497	0.112580	0.747615
N281	N	1.065745	-0.954956	0.238729
N282	N	1.565745	-0.454956	0.738729
N283	N	1.104416	-0.975901	0.200123
N284	N	1.604416	-0.475901	0.700123
H285	H	1.135659	-0.958979	0.168913
H286	H	1.635659	-0.458979	0.668913
H287	H	1.056554	-0.472529	0.247634
H288	H	1.556554	0.027471	0.747634
H289	H	0.899609	-0.959863	0.404631
H290	H	1.399609	-0.459863	0.904631
N291	N	1.108898	-0.598373	0.195440
N292	N	1.608898	-0.098373	0.695440
N293	N	1.147573	-0.619320	0.156839
N294	N	1.647573	-0.119320	0.656839
H295	H	1.178819	-0.602399	0.125631
H296	H	1.678819	-0.102399	0.625631
H297	H	0.899470	-0.268498	0.584411
H298	H	1.399470	0.231502	1.084411
N299	N	0.847205	-0.693262	0.456808
N300	N	1.347205	-0.193262	0.956808
N301	N	0.784750	-0.688061	0.452265
N302	N	1.284750	-0.188061	0.952265
H303	H	0.753504	-0.704985	0.483469
H304	H	1.253504	-0.204985	0.983469
N305	N	0.890393	-0.477443	0.413514
N306	N	1.390393	0.022557	0.913514
N307	N	0.851711	-0.456501	0.452113
N308	N	1.351711	0.043499	0.952113
H309	H	0.820463	-0.473426	0.483316
H310	H	1.320463	0.026574	0.983316
H311	H	0.899337	-0.387461	0.404539
H312	H	1.399337	0.112539	0.904539
H313	H	0.856248	-0.829154	0.447859
H314	H	1.356248	-0.329154	0.947859
N315	N	0.847231	-0.739195	0.456811
N316	N	1.347231	-0.239195	0.956811
N317	N	0.808576	-0.760163	0.495419
N318	N	1.308576	-0.260163	0.995419
H319	H	0.777314	-0.743258	0.526622
H320	H	1.277314	-0.243258	1.026622
H321	H	1.056696	-0.164242	0.712722
H322	H	1.556696	0.335758	1.212722
