data_functionalizedCrystal
_audit_creation_method	'MofGen! by Chris Wilmer'
_symmetry_space_group_name_H-M	'P1'
_symmetry_Int_Tables_number	1
_symmetry_cell_setting	triclinic
loop_
_symmetry_equiv_pos_as_xyz
  x,y,z
_cell_length_a	12.594516
_cell_length_b	12.759401
_cell_length_c	12.759393
_cell_angle_alpha	90.018496
_cell_angle_beta	89.970007
_cell_angle_gamma	89.981667
loop_
_atom_site_label
_atom_site_type_symbol
_atom_site_fract_x
_atom_site_fract_y
_atom_site_fract_z
Zn1	Zn	-0.423675	-1.606230	-0.593993
Zn2	Zn	-0.601694	-1.606114	-0.418318
Zn3	Zn	-0.423731	-1.430532	-0.418332
Zn4	Zn	-0.601612	-1.430510	-0.593959
O5	O	-0.512678	-1.518346	-0.506151
O6	O	-0.447300	-1.753236	-0.570697
O7	O	-0.578144	-1.582783	-0.271299
O8	O	-0.274777	-1.453897	-0.441654
O9	O	-0.578090	-1.753150	-0.441629
O10	O	-0.274736	-1.582981	-0.570711
O11	O	-0.447395	-1.453784	-0.271309
O12	O	-0.447316	-1.283508	-0.441622
O13	O	-0.577951	-1.453859	-0.740985
O14	O	-0.578005	-1.283492	-0.570654
O15	O	-0.447221	-1.582960	-0.741009
O16	O	-0.750629	-1.582762	-0.441597
O17	O	-0.750569	-1.453746	-0.570640
C18	C	-0.512658	-1.245379	-0.506136
C19	C	-0.512676	-1.128602	-0.506155
C20	C	-0.789219	-1.518267	-0.506136
C21	C	-0.907524	-1.518330	-0.506165
C22	C	-0.512571	-1.518420	-0.780184
C23	C	-0.512525	-1.518451	-0.896961
C24	C	-1.047547	-1.448216	-0.576316
C25	C	-0.976634	-1.543997	-0.602087
C26	C	-0.976866	-1.422558	-0.480441
C27	C	-1.047397	-1.614333	-0.532025
C28	C	-1.047635	-1.492830	-0.410334
C29	C	-0.976754	-1.588677	-0.436069
C30	C	-0.235057	-1.518454	-0.506188
C31	C	-0.116752	-1.518500	-0.506204
C32	C	-0.512698	-1.792380	-0.506165
C33	C	-0.512707	-1.909156	-0.506172
C34	C	-0.580834	-1.073760	-0.573231
C35	C	-0.580848	-0.964035	-0.573243
C36	C	-0.444541	-0.964007	-0.439093
C37	C	-0.444523	-1.073729	-0.439087
C38	C	-0.659533	-1.073775	-0.650678
C39	C	-0.659547	-0.964051	-0.650690
C40	C	-0.444447	-1.585683	-0.951837
C41	C	-0.444409	-1.585708	-1.061561
C42	C	-0.580535	-1.451266	-1.061523
C43	C	-0.580567	-1.451237	-0.951801
C44	C	-0.365859	-1.663306	-0.951861
C45	C	-0.365821	-1.663331	-1.061585
C46	C	-0.512708	-1.518334	-0.233183
C47	C	-0.512454	-1.518506	-0.116407
H48	H	-1.078628	-1.388924	-0.635669
H49	H	-0.945450	-1.565643	-0.683146
C50	C	-1.089803	-1.463546	-0.300861
N51	N	-1.121568	-1.441477	-0.218405
C52	C	-1.089077	-1.723880	-0.561576
N53	N	-1.120473	-1.806387	-0.583839
H54	H	-0.287500	-1.634222	-1.095630
C55	C	-0.770880	-0.923787	-0.621055
N56	N	-0.854732	-0.893461	-0.598732
C57	C	-0.369534	-1.134052	-0.365308
N58	N	-0.313049	-1.179488	-0.309734
C59	C	-0.655375	-1.377333	-1.121857
N60	N	-0.711747	-1.321644	-1.167299
H61	H	-0.387898	-1.744700	-1.091364
C62	C	-0.935006	-1.668970	-0.355957
N63	N	-0.903553	-1.729449	-0.295625
C64	C	-0.369580	-0.903636	-0.365319
N65	N	-0.313120	-0.858166	-0.309750
C66	C	-0.765264	-1.119726	-0.611123
N67	N	-0.844900	-1.154336	-0.581328
H68	H	-0.283430	-1.641542	-0.922102
H69	H	-0.395410	-1.740576	-0.917825
H70	H	-0.945878	-1.341493	-0.458667
H71	H	-0.630122	-0.930055	-0.728041
C72	C	-0.655441	-1.377261	-0.891440
N73	N	-0.711837	-1.321537	-0.845977
C74	C	-0.629862	-1.114051	-0.760659
N75	N	-0.607522	-1.144387	-0.843497
