data_functionalizedCrystal
_audit_creation_method	'MofGen! by Chris Wilmer'
_symmetry_space_group_name_H-M	'P1'
_symmetry_Int_Tables_number	1
_symmetry_cell_setting	triclinic
loop_
_symmetry_equiv_pos_as_xyz
  x,y,z
_cell_length_a	7.190339
_cell_length_b	7.190334
_cell_length_c	20.453700
_cell_angle_alpha	60.611776
_cell_angle_beta	60.611724
_cell_angle_gamma	82.319600
loop_
_atom_site_label
_atom_site_type_symbol
_atom_site_fract_x
_atom_site_fract_y
_atom_site_fract_z
V1	V	0.291701	0.663510	-1.436216
O2	O	-0.017518	0.652431	-1.400528
O3	O	0.581760	0.657480	-1.448013
O4	O	0.285678	0.953571	-1.448015
O5	O	0.280614	0.354291	-1.400526
V6	V	0.254896	0.626707	-1.590187
O7	O	0.372435	0.744243	-1.539104
O8	O	0.174162	0.545974	-1.637366
O9	O	-0.035163	0.632737	-1.503988
O10	O	0.564115	0.637786	-1.665008
O11	O	0.265983	0.935926	-1.665010
O12	O	0.260919	0.336646	-1.503987
V13	V	0.254896	0.626707	-1.256849
O14	O	0.265983	0.935926	-1.292539
O15	O	0.260919	0.336646	-1.245051
O16	O	-0.035163	0.632737	-1.245052
O17	O	0.564115	0.637786	-1.292538
V18	V	0.291701	0.663510	-1.102878
O19	O	0.174162	0.545974	-1.153962
O20	O	0.372435	0.744243	-1.055700
O21	O	0.285678	0.953571	-1.189079
O22	O	0.280614	0.354291	-1.028056
O23	O	-0.017518	0.652431	-1.028057
O24	O	0.581760	0.657480	-1.189077
C25	C	0.652521	0.646638	-1.402245
C26	C	0.894096	0.643590	-1.439867
V27	V	0.291701	0.663510	-0.769550
O28	O	-0.017518	0.652431	-0.733861
O29	O	0.581760	0.657480	-0.781347
O30	O	0.285678	0.953571	-0.781348
O31	O	0.280614	0.354291	-0.733860
V32	V	0.254896	0.626707	-0.923521
O33	O	0.372435	0.744243	-0.872437
O34	O	0.174162	0.545974	-0.970699
O35	O	-0.035163	0.632737	-0.837321
O36	O	0.564115	0.637786	-0.998342
O37	O	0.265983	0.935926	-0.998343
O38	O	0.260919	0.336646	-0.837320
C39	C	0.274825	1.024318	-1.402242
C40	C	0.271761	1.265891	-1.439861
C41	C	-0.105910	0.643592	-1.290825
C42	C	-0.347481	0.646667	-1.253208
C43	C	0.271764	0.265885	-1.290820
C44	C	0.274818	0.024311	-1.253199
C45	C	0.652521	0.646638	-0.735578
C46	C	0.894096	0.643590	-0.773200
C47	C	0.274825	1.024318	-0.735575
C48	C	0.271761	1.265891	-0.773195
