data_functionalizedCrystal
_audit_creation_method	'MofGen! by Chris Wilmer'
_symmetry_space_group_name_H-M	'P1'
_symmetry_Int_Tables_number	1
_symmetry_cell_setting	triclinic
loop_
_symmetry_equiv_pos_as_xyz
  x,y,z
_cell_length_a	12.837932
_cell_length_b	8.559649
_cell_length_c	7.088899
_cell_angle_alpha	97.661974
_cell_angle_beta	83.687778
_cell_angle_gamma	97.695816
loop_
_atom_site_label
_atom_site_type_symbol
_atom_site_fract_x
_atom_site_fract_y
_atom_site_fract_z
O1	O	-0.042978	-2.098929	0.158959
O2	O	0.009916	-1.641779	0.158965
O3	O	-0.166627	-1.860215	0.158963
O4	O	0.133565	-1.880492	0.158960
O5	O	-0.150163	-1.892016	-0.159013
O6	O	0.026380	-1.673580	-0.159011
O7	O	-0.026514	-2.130730	-0.159017
Cu8	Cu	0.001437	-1.905058	-0.188048
Cu9	Cu	-0.018034	-1.867450	0.187996
O10	O	0.150029	-1.912293	-0.159016
C11	C	0.022157	-1.598759	-0.000022
C12	C	0.034088	-1.423196	-0.000020
C13	C	-0.196470	-1.869266	-0.000020
C14	C	-0.309922	-1.848838	-0.000007
C15	C	-0.038754	-2.173749	-0.000026
C16	C	-0.050687	-2.349311	-0.000016
C17	C	-0.446172	-1.678104	-0.000007
C18	C	-0.339574	-1.697286	-0.000004
C19	C	-0.386879	-1.981215	-0.000006
C20	C	-0.493477	-1.962032	-0.000009
C21	C	-0.523120	-1.810472	-0.000013
C22	C	-0.629720	-1.791292	-0.000029
C23	C	-0.677023	-2.075218	-0.000018
C24	C	-0.570425	-2.094401	-0.000015
C25	C	0.179872	-1.903242	-0.000028
C26	C	0.293323	-1.923669	-0.000029
N27	N	0.015130	-1.931522	-0.452537
N28	N	-0.031737	-1.840998	0.452484
H29	H	-0.653851	-1.667886	-0.000049
H30	H	-0.276925	-1.589497	0.000002
C31	C	-0.096323	-1.715635	-0.438756
C32	C	-0.052891	-1.565705	-0.487318
C33	C	-0.112349	-1.450182	-0.387152
H34	H	-0.167065	-1.737268	-0.471378
H35	H	-0.095357	-1.717325	-0.305230
H36	H	-0.053868	-1.564018	-0.620815
H37	H	0.017844	-1.544021	-0.454692
H38	H	-0.111384	-1.451871	-0.253625
H39	H	-0.183089	-1.471830	-0.419781
H40	H	-0.082884	-1.348439	-0.420074
H41	H	0.115800	-1.352131	-0.000010
H42	H	-0.470305	-1.554701	-0.000044
C43	C	-0.354826	-2.145878	-0.000270
C44	C	-0.386568	-2.243253	-0.163829
C45	C	-0.357075	-2.394959	-0.164114
H46	H	-0.280336	-2.138581	-0.000351
H47	H	-0.387797	-2.190044	0.110563
H48	H	-0.353593	-2.199098	-0.274634
H49	H	-0.461054	-2.250597	-0.163783
H50	H	-0.390047	-2.439124	-0.053281
H51	H	-0.282586	-2.387645	-0.164190
H52	H	-0.378617	-2.461050	-0.275077
C53	C	0.080067	-2.056436	-0.561295
C54	C	0.184244	-2.023847	-0.512791
C55	C	0.244099	-2.138873	-0.612973
H56	H	0.050891	-2.158361	-0.528646
H57	H	0.079193	-2.054622	-0.694820
H58	H	0.185115	-2.025676	-0.379297
H59	H	0.213451	-1.921942	-0.545445
H60	H	0.243224	-2.137060	-0.746498
H61	H	0.214913	-2.240792	-0.580316
H62	H	0.314791	-2.116769	-0.580091
H63	H	-0.546274	-2.217798	-0.000020
H64	H	-0.739687	-2.183002	-0.000026
H65	H	-0.132395	-1.420365	-0.000006
