data_functionalizedCrystal
_audit_creation_method	'MofGen! by Chris Wilmer'
_symmetry_space_group_name_H-M	'P1'
_symmetry_Int_Tables_number	1
_symmetry_cell_setting	triclinic
loop_
_symmetry_equiv_pos_as_xyz
  x,y,z
_cell_length_a	8.559649
_cell_length_b	13.596369
_cell_length_c	8.559649
_cell_angle_alpha	89.995606
_cell_angle_beta	110.221336
_cell_angle_gamma	90.005227
loop_
_atom_site_label
_atom_site_type_symbol
_atom_site_fract_x
_atom_site_fract_y
_atom_site_fract_z
O1	O	2.126883	0.081776	0.055032
O2	O	1.651398	0.081780	-0.028749
O3	O	1.931031	0.081777	0.250884
O4	O	1.847250	0.081779	-0.224601
O5	O	1.931008	-0.081806	0.250894
O6	O	1.651375	-0.081803	-0.028739
O7	O	2.126860	-0.081807	0.055043
Zn8	Zn	1.889113	-0.107777	0.013154
Zn9	Zn	1.889144	0.107750	0.013140
O10	O	1.847227	-0.081804	-0.224590
C11	C	1.591077	-0.000011	-0.035093
C12	C	1.411378	-0.000010	-0.053992
N13	N	1.889105	-0.254869	0.013165
C14	C	1.889142	-0.656160	0.013138
C15	C	1.889126	-0.544509	0.013140
C16	C	1.889124	-0.455518	0.013151
C17	C	1.889107	-0.343860	0.013154
C18	C	2.187180	-0.000014	0.061387
C19	C	2.366879	-0.000009	0.080286
C20	C	1.937369	-0.000013	0.311198
C21	C	1.956268	-0.000008	0.490898
N22	N	1.889167	0.254842	0.013143
C23	C	1.840889	-0.000012	-0.284904
C24	C	1.821990	-0.000011	-0.464604
H25	H	1.466258	-0.000005	0.209705
O26	O	1.667464	-0.000047	0.417062
C27	C	1.546413	-0.000024	0.494509
H28	H	1.602935	-0.031000	0.625865
H29	H	1.436300	-0.047510	0.419399
H30	H	1.502118	0.078456	0.500886
O31	O	2.110557	0.000032	0.609667
C32	C	2.095723	-0.000003	0.768669
H33	H	1.969055	0.030964	0.759365
H34	H	2.198308	0.047487	0.856868
H35	H	2.107812	-0.078485	0.818348
H36	H	1.311990	-0.000004	-0.183420
