data_functionalizedCrystal
_audit_creation_method	'MofGen! by Chris Wilmer'
_symmetry_space_group_name_H-M	'P1'
_symmetry_Int_Tables_number	1
_symmetry_cell_setting	triclinic
loop_
_symmetry_equiv_pos_as_xyz
  x,y,z
_cell_length_a	10.654545
_cell_length_b	10.540510
_cell_length_c	9.730223
_cell_angle_alpha	89.998073
_cell_angle_beta	89.997167
_cell_angle_gamma	84.498195
loop_
_atom_site_label
_atom_site_type_symbol
_atom_site_fract_x
_atom_site_fract_y
_atom_site_fract_z
O1	O	1.667886	0.178275	-0.114268
O2	O	1.302411	0.195269	-0.114273
O3	O	1.493506	0.002060	-0.114270
O4	O	1.476791	0.371484	-0.114271
O5	O	1.493494	0.002055	0.114310
O6	O	1.302399	0.195264	0.114307
O7	O	1.667874	0.178270	0.114312
Zn8	Zn	1.485134	0.186766	0.150601
Zn9	Zn	1.485151	0.186773	-0.150562
O10	O	1.476779	0.371479	0.114309
C11	C	1.255607	0.194020	0.000016
C12	C	1.116162	0.190290	0.000014
C13	C	1.050650	0.188532	0.124614
C14	C	0.919630	0.185006	0.124614
C15	C	0.919644	0.185004	-0.124597
C16	C	1.050663	0.188520	-0.124595
C17	C	1.492254	-0.045246	0.000017
C18	C	1.488528	-0.186194	0.000009
C19	C	1.621281	-0.403700	0.000534
C20	C	1.625256	-0.257105	0.000012
C21	C	1.418543	-0.230923	-0.130520
C22	C	1.415537	-0.377683	-0.130622
C23	C	1.412675	-0.377497	0.129316
C24	C	1.419160	-0.231158	0.131034
C25	C	1.714678	0.179519	0.000020
C26	C	1.854123	0.183249	0.000013
C27	C	1.478031	0.418785	0.000019
C28	C	1.481757	0.559733	0.000018
N29	N	1.485132	0.186761	0.356138
N30	N	1.485163	0.186769	-0.356099
C31	C	1.569778	0.101244	0.428065
C32	C	1.569791	0.101245	0.571948
C33	C	1.400507	0.272289	0.571964
C34	C	1.400490	0.272281	0.428083
H35	H	1.680015	-0.227784	0.093578
C36	C	1.122699	0.190467	0.261682
C37	C	1.226064	0.082846	0.295959
C38	C	1.298107	0.084778	0.433032
C39	C	1.266785	0.194329	0.535829
C40	C	1.163414	0.301958	0.501554
C41	C	1.091371	0.300027	0.364481
H42	H	1.249256	0.001742	0.219861
H43	H	1.374629	0.005103	0.458404
H44	H	1.320115	0.195759	0.637299
H45	H	1.140222	0.383062	0.577652
H46	H	1.014849	0.379701	0.339109
H47	H	1.674544	-0.445677	0.094143
C48	C	0.847568	0.183077	0.261677
C49	C	0.744195	0.290695	0.295942
C50	C	0.672135	0.288764	0.433012
C51	C	0.703448	0.179215	0.535818
C52	C	0.806826	0.071588	0.501556
C53	C	0.878886	0.073520	0.364486
H54	H	0.721011	0.371798	0.219836
H55	H	0.595608	0.368437	0.458374
H56	H	0.650105	0.177785	0.637286
H57	H	0.830010	-0.009514	0.577662
H58	H	0.955414	-0.006153	0.339124
H59	H	1.104005	0.189948	-0.226065
C60	C	1.307374	0.366356	0.348950
C61	C	1.214324	0.460483	0.428079
C62	C	1.121211	0.554548	0.348944
C63	C	1.121147	0.554487	0.190682
C64	C	1.214200	0.460358	0.111545
C65	C	1.307314	0.366292	0.190679
H66	H	1.214369	0.460531	0.545242
H67	H	1.052326	0.624229	0.407528
H68	H	1.052218	0.624120	0.132102
H69	H	1.214156	0.460309	-0.005619
H70	H	1.376198	0.296611	0.132095
C71	C	1.692840	-0.462477	-0.125214
C72	C	1.625145	-0.543448	-0.228222
C73	C	1.696699	-0.602224	-0.353974
C74	C	1.835948	-0.580029	-0.376717
C75	C	1.903650	-0.499053	-0.273706
C76	C	1.832096	-0.440277	-0.147954
H77	H	1.522058	-0.559882	-0.211388
H78	H	1.646581	-0.662167	-0.430229
H79	H	1.888917	-0.623538	-0.469806
H80	H	2.006738	-0.482620	-0.290540
H81	H	1.882215	-0.380334	-0.071699
C82	C	1.699655	-0.218740	-0.126619
C83	C	1.755627	-0.321556	-0.227587
C84	C	1.830022	-0.283191	-0.354229
C85	C	1.848445	-0.142011	-0.379903
C86	C	1.792472	-0.039187	-0.278932
C87	C	1.718077	-0.077551	-0.152290
H88	H	1.741990	-0.426074	-0.208584
H89	H	1.871457	-0.359310	-0.428975
H90	H	1.903516	-0.113612	-0.473651
H91	H	1.806108	0.065332	-0.297935
H92	H	1.676642	-0.001433	-0.077544
C93	C	1.282564	-0.166850	-0.137098
C94	C	1.233372	-0.072944	-0.023749
C95	C	1.097394	-0.008868	-0.030325
C96	C	1.010608	-0.038699	-0.150249
C97	C	1.059799	-0.132610	-0.263607
C98	C	1.195777	-0.196686	-0.257031
H99	H	1.297618	-0.050857	0.065034
H100	H	1.060980	0.060651	0.053590
H101	H	0.909949	0.008733	-0.155117
H102	H	0.995553	-0.154697	-0.352390
H103	H	1.232191	-0.266205	-0.340946
H104	H	1.467156	-0.200083	-0.227657
C105	C	1.284297	-0.164841	0.141690
C106	C	1.245339	-0.081987	0.267807
C107	C	1.110469	-0.015674	0.278452
C108	C	1.014556	-0.032215	0.162979
C109	C	1.053513	-0.115073	0.036853
C110	C	1.188383	-0.181386	0.026208
H111	H	1.316341	-0.069739	0.353295
H112	H	1.081631	0.045663	0.371819
H113	H	0.914717	0.016873	0.170859
H114	H	0.982511	-0.127321	-0.048635
H115	H	1.217220	-0.242722	-0.067159
H116	H	1.638698	0.031606	0.369490
H117	H	1.456120	-0.419697	0.228257
H118	H	0.866299	0.183564	-0.226049
H119	H	1.463374	-0.417914	-0.228193
C120	C	1.487939	-0.192528	0.261494
C121	C	1.606532	-0.120494	0.249171
C122	C	1.675313	-0.081854	0.379628
C123	C	1.625502	-0.115248	0.522408
C124	C	1.506903	-0.187286	0.534738
C125	C	1.438121	-0.225926	0.404281
H126	H	1.643411	-0.095770	0.143471
H127	H	1.763109	-0.028526	0.370500
H128	H	1.676418	-0.086645	0.618981
H129	H	1.470023	-0.212010	0.640437
H130	H	1.350326	-0.279253	0.413408
H131	H	1.313272	-0.400640	-0.136537
H132	H	1.310018	-0.399608	0.130194
H133	H	1.331595	0.341920	0.630556
H134	H	1.638716	0.031608	0.630507
