data_functionalizedCrystal
_audit_creation_method	'MofGen! by Chris Wilmer'
_symmetry_space_group_name_H-M	'P1'
_symmetry_Int_Tables_number	1
_symmetry_cell_setting	triclinic
loop_
_symmetry_equiv_pos_as_xyz
  x,y,z
_cell_length_a	16.974897
_cell_length_b	15.455313
_cell_length_c	16.109301
_cell_angle_alpha	87.337130
_cell_angle_beta	83.431140
_cell_angle_gamma	96.324780
loop_
_atom_site_label
_atom_site_type_symbol
_atom_site_fract_x
_atom_site_fract_y
_atom_site_fract_z
O1	O	1.056133	0.146192	0.098648
O2	O	1.556133	0.646192	0.598648
O3	O	0.825147	0.129997	0.112949
O4	O	1.325147	0.629997	0.612949
O5	O	0.946985	0.138531	-0.015260
O6	O	1.446985	0.638531	0.484740
O7	O	0.934295	0.137659	0.226856
O8	O	1.434295	0.637659	0.726856
O9	O	0.940018	-0.006219	-0.007958
O10	O	1.440018	0.493781	0.492042
O11	O	0.818180	-0.014753	0.120251
O12	O	1.318180	0.485247	0.620251
O13	O	1.049165	0.001442	0.105949
O14	O	1.549165	0.501442	0.605949
Cu15	Cu	0.933036	-0.019872	0.113767
Cu16	Cu	1.433036	0.480128	0.613767
Cu17	Cu	0.941276	0.151312	0.105132
Cu18	Cu	1.441276	0.651312	0.605132
O19	O	0.927328	-0.007091	0.234158
O20	O	1.427328	0.492909	0.734158
C21	C	0.792106	0.055550	0.116189
C22	C	1.292106	0.555550	0.616189
C23	C	0.704034	0.049374	0.114956
C24	C	1.204034	0.549374	0.614956
N25	N	0.927247	-0.140273	0.119839
N26	N	1.427247	0.359727	0.619839
C27	C	0.666448	0.125370	0.110399
C28	C	1.166448	0.625370	0.610399
C29	C	0.583693	0.119555	0.109255
C30	C	1.083693	0.619555	0.609255
C31	C	0.538526	0.037743	0.112661
C32	C	1.038526	0.537743	0.612661
C33	C	0.576117	-0.038258	0.117221
C34	C	1.076117	0.461742	0.617221
C35	C	0.658870	-0.032442	0.118371
C36	C	1.158870	0.467558	0.618371
C37	C	0.290623	0.011888	0.109652
C38	C	0.790623	0.511888	0.609652
C39	C	0.207865	0.006077	0.108499
C40	C	0.707865	0.506077	0.608499
C41	C	0.215446	0.163891	0.100534
C42	C	0.715446	0.663891	0.600534
C43	C	0.298201	0.169700	0.101680
C44	C	0.798201	0.669700	0.601680
C45	C	0.335785	0.093699	0.106244
C46	C	0.835785	0.593699	0.606244
N47	N	0.453937	0.031797	0.111488
N48	N	0.953937	0.531797	0.611488
N49	N	0.420371	0.099645	0.107423
N50	N	0.920371	0.599645	0.607423
C51	C	0.979026	-0.182041	0.065392
C52	C	1.479026	0.317959	0.565392
C53	C	0.974655	-0.273155	0.069992
C54	C	1.474655	0.226845	0.569992
C55	C	0.918508	-0.322499	0.129044
C56	C	1.418508	0.177501	0.629044
C57	C	0.866724	-0.280726	0.183494
C58	C	1.366724	0.219274	0.683494
C59	C	0.871092	-0.189614	0.178890
C60	C	1.371092	0.310386	0.678890
C61	C	0.899655	-0.595401	0.148898
C62	C	1.399655	-0.095401	0.648898
C63	C	0.895293	-0.686519	0.153500
C64	C	1.395293	-0.186519	0.653500
C65	C	1.003223	-0.678942	0.039996
C66	C	1.503223	-0.178942	0.539996
C67	C	1.007590	-0.587828	0.035400
C68	C	1.507590	-0.087828	0.535400
C69	C	0.955802	-0.546063	0.089847
C70	C	1.455802	-0.046063	0.589847
N71	N	0.914041	-0.415632	0.133750
N72	N	1.414041	0.084368	0.633750
N73	N	0.960267	-0.452932	0.085137
N74	N	1.460267	0.047068	0.585137
C75	C	1.082207	0.075892	0.102709
C76	C	1.582207	0.575892	0.602709
C77	C	1.170279	0.082073	0.103942
C78	C	1.670279	0.582073	0.603942
C79	C	0.942987	0.066119	-0.042582
C80	C	1.442987	0.566119	0.457418
C81	C	0.941446	0.066010	-0.134870
C82	C	1.441446	0.566010	0.365130
N83	N	0.947072	0.271713	0.099052
N84	N	1.447072	0.771713	0.599052
C85	C	1.010159	0.070842	-0.357441
C86	C	1.510159	0.570842	0.142559
C87	C	1.008705	0.070747	-0.444156
C88	C	1.508705	0.570747	0.055844
C89	C	0.864148	0.060608	-0.423654
C90	C	1.364148	0.560608	0.076346
C91	C	0.865603	0.060709	-0.336942
C92	C	1.365603	0.560709	0.163058
C93	C	0.938611	0.065822	-0.303838
C94	C	1.438611	0.565822	0.196162
C95	C	0.935702	0.065626	-0.477264
C96	C	1.435702	0.565626	0.022736
C97	C	0.934125	0.065523	-0.571284
C98	C	1.434125	0.565523	-0.071284
C99	C	0.940188	0.065926	-0.209812
C100	C	1.440188	0.565926	0.290188
C101	C	0.931325	0.065322	0.261480
C102	C	1.431325	0.565322	0.761480
C103	C	0.932867	0.065437	0.353768
C104	C	1.432867	0.565437	0.853768
H105	H	0.703217	0.191990	0.107623
H106	H	1.203217	0.691990	0.607623
H107	H	0.807337	0.056623	-0.293295
H108	H	1.307337	0.556623	0.206705
C109	C	0.331956	-0.071717	0.114663
C110	C	0.831956	0.428283	0.614663
N111	N	0.363090	-0.134692	0.118435
N112	N	0.863090	0.365308	0.618435
C113	C	1.060179	-0.724892	-0.019898
C114	C	1.560179	-0.224892	0.480102
N115	N	1.103077	-0.759502	-0.065016
N116	N	1.603077	-0.259502	0.434984
H117	H	0.821004	-0.320908	0.231574
H118	H	1.321004	0.179092	0.731574
C119	C	0.833522	-0.740797	0.218463
C120	C	1.333522	-0.240797	0.718463
N121	N	0.786999	-0.781679	0.267390
N122	N	1.286999	-0.281679	0.767390
H123	H	1.024750	-0.141869	0.017308
H124	H	1.524750	0.358131	0.517308
C125	C	0.526430	-0.128253	0.120969
C126	C	1.026430	0.371747	0.620969
N127	N	0.489008	-0.196038	0.123789
N128	N	0.989008	0.303962	0.623789
H129	H	0.553094	0.181439	0.105544
H130	H	1.053094	0.681439	0.605544
C131	C	0.347880	0.259699	0.097918
C132	C	0.847880	0.759699	0.597918
N133	N	0.385300	0.327488	0.095077
N134	N	0.885300	0.827488	0.595077
C135	C	1.031597	-0.319096	0.010075
C136	C	1.531597	0.180904	0.510075
N137	N	1.074482	-0.353698	-0.035065
N138	N	1.574482	0.146302	0.464935
H139	H	0.828927	-0.155608	0.223226
H140	H	1.328927	0.344392	0.723226
H141	H	0.184836	0.225767	0.096820
H142	H	0.684836	0.725767	0.596820
C143	C	1.087414	0.076261	-0.503116
C144	C	1.587414	0.576261	-0.003116
N145	N	1.146701	0.080414	-0.547525
N146	N	1.646701	0.580414	-0.047525
H147	H	0.689471	-0.094326	0.122086
H148	H	1.189471	0.405674	0.622086
H149	H	1.069607	0.075006	-0.330491
H150	H	1.569607	0.575006	0.169509
C151	C	0.783843	0.054967	-0.460076
C152	C	1.283843	0.554967	0.039924
N153	N	0.723356	0.050712	-0.487508
N154	N	1.223356	0.550712	0.012492
C155	C	1.069351	-0.533556	-0.029567
C156	C	1.569351	-0.033556	0.470433
N157	N	1.115871	-0.492678	-0.078500
N158	N	1.615871	0.007322	0.421500
C159	C	0.158183	-0.083926	0.112244
C160	C	0.658183	0.416074	0.612244
N161	N	0.120763	-0.151713	0.115061
N162	N	0.620763	0.348287	0.615061
C163	C	0.842790	-0.549464	0.208899
C164	C	1.342790	-0.049464	0.708899
N165	N	0.799993	-0.514859	0.254134
N166	N	1.299993	-0.014859	0.754134
