data_functionalizedCrystal
_audit_creation_method	'MofGen! by Chris Wilmer'
_symmetry_space_group_name_H-M	'P1'
_symmetry_Int_Tables_number	1
_symmetry_cell_setting	triclinic
loop_
_symmetry_equiv_pos_as_xyz
  x,y,z
_cell_length_a	17.699104
_cell_length_b	8.597304
_cell_length_c	16.776229
_cell_angle_alpha	97.706479
_cell_angle_beta	90.008029
_cell_angle_gamma	84.318364
loop_
_atom_site_label
_atom_site_type_symbol
_atom_site_fract_x
_atom_site_fract_y
_atom_site_fract_z
O1	O	1.005715	0.198623	0.079942
O2	O	1.505715	0.698623	0.579942
O3	O	0.785553	0.224410	0.081711
O4	O	1.285553	0.724410	0.581711
O5	O	0.899966	-0.016967	0.065133
O6	O	1.399966	0.483033	0.565133
O7	O	0.891303	0.440001	0.096520
O8	O	1.391303	0.940001	0.596520
O9	O	0.899950	-0.016982	-0.067444
O10	O	1.399950	0.483018	0.432556
O11	O	0.785538	0.224395	-0.050866
O12	O	1.285538	0.724395	0.449134
O13	O	1.005700	0.198608	-0.052635
O14	O	1.505700	0.698608	0.447365
Zn15	Zn	0.895616	0.211499	-0.072800
Zn16	Zn	1.395616	0.711499	0.427200
Zn17	Zn	0.895637	0.211519	0.101876
Zn18	Zn	1.395637	0.711519	0.601876
O19	O	0.891287	0.439986	-0.036057
O20	O	1.391287	0.939986	0.463943
C21	C	0.757341	0.223473	0.015358
C22	C	1.257341	0.723473	0.515358
C23	C	0.673301	0.220684	0.015166
C24	C	1.173301	0.720684	0.515166
C25	C	0.149474	0.346641	0.023826
C26	C	0.649474	0.846641	0.523826
C27	C	0.228439	0.349252	0.024007
C28	C	0.728439	0.849252	0.524007
C29	C	0.275882	0.207554	0.014275
C30	C	0.775882	0.707554	0.514275
C31	C	0.244356	0.063236	0.004368
C32	C	0.744356	0.563236	0.504368
C33	C	0.165391	0.060627	0.004192
C34	C	0.665391	0.560627	0.504192
C35	C	0.562809	0.073755	0.005077
C36	C	1.062809	0.573755	0.505077
C37	C	0.641778	0.076376	0.005251
C38	C	1.141778	0.576376	0.505251
C39	C	0.625857	0.362380	0.024893
C40	C	1.125857	0.862380	0.524893
C41	C	0.546893	0.359771	0.024717
C42	C	1.046893	0.859771	0.524717
C43	C	0.515373	0.215454	0.014814
C44	C	1.015373	0.715454	0.514814
C45	C	0.429750	0.212625	0.014619
C46	C	0.929750	0.712625	0.514619
C47	C	0.361504	0.210382	0.014464
C48	C	0.861504	0.710382	0.514464
C49	C	0.899027	-0.075443	-0.005170
C50	C	1.399027	0.424557	0.494830
C51	C	0.896244	-0.249661	-0.017131
C52	C	1.396244	0.250339	0.482869
C53	C	1.033912	0.199545	0.013720
C54	C	1.533912	0.699545	0.513720
C55	C	1.117953	0.202334	0.013917
C56	C	1.617953	0.702334	0.513917
C57	C	0.892226	0.498462	0.034248
C58	C	1.392226	0.998462	0.534248
C59	C	0.895009	0.672679	0.046214
C60	C	1.395009	1.172679	0.546214
N61	N	0.895608	0.211485	-0.192012
N62	N	1.395608	0.711485	0.307988
C63	C	0.946286	0.104647	-0.241067
C64	C	1.446286	0.604647	0.258933
C65	C	0.946290	0.104646	-0.324520
C66	C	1.446290	0.604646	0.175480
C67	C	0.895619	0.211491	-0.358915
C68	C	1.395619	0.711491	0.141085
C69	C	0.844936	0.318335	-0.309854
C70	C	1.344936	0.818335	0.190146
C71	C	0.844929	0.318327	-0.226404
C72	C	1.344929	0.818327	0.273596
C73	C	0.844963	0.318365	-0.646399
C74	C	1.344963	0.818365	-0.146399
C75	C	0.844976	0.318368	-0.729855
C76	C	1.344976	0.818368	-0.229855
C77	C	0.946325	0.104684	-0.744515
C78	C	1.446325	0.604684	-0.244515
C79	C	0.946318	0.104676	-0.661065
C80	C	1.446318	0.604676	-0.161065
C81	C	0.895632	0.211513	-0.612011
C82	C	1.395632	0.711513	-0.112011
C83	C	0.895627	0.211512	-0.521523
C84	C	1.395627	0.711512	-0.021523
C85	C	0.895627	0.211502	-0.449401
C86	C	1.395627	0.711502	0.050599
N87	N	0.895651	0.211521	0.221088
N88	N	1.395651	0.711521	0.721088
H89	H	0.282990	-0.052137	-0.003552
H90	H	0.782990	0.447863	0.496448
F91	F	1.000221	-0.009068	-0.204469
F92	F	1.500221	0.490932	0.295531
F93	F	0.894832	-0.336966	-0.099991
F94	F	1.394832	0.163034	0.400009
F95	F	1.000226	-0.009065	-0.376728
F96	F	1.500226	0.490935	0.123272
F97	F	1.000250	-0.009037	-0.624462
F98	F	1.500250	0.490963	-0.124462
F99	F	1.000268	-0.009028	-0.796728
F100	F	1.500268	0.490972	-0.296728
H101	H	0.254100	0.466761	0.032083
H102	H	0.754100	0.966761	0.532083
H103	H	0.110851	0.462028	0.031745
H104	H	0.610851	0.962028	0.531745
F105	F	0.896410	-0.240020	0.129070
F106	F	1.396410	0.259980	0.629070
H107	H	0.537156	-0.043756	-0.002988
H108	H	1.037156	0.456244	0.497012
F109	F	0.496404	0.510585	0.035074
F110	F	0.996404	1.010585	0.535074
F111	F	0.692269	-0.074446	-0.005107
F112	F	1.192269	0.425554	0.494893
F113	F	0.791042	0.432092	-0.766459
F114	F	1.291042	0.932092	-0.266459
H115	H	0.803695	0.405358	-0.606466
H116	H	1.303695	0.905358	-0.106466
F117	F	0.791004	0.432042	-0.346461
F118	F	1.291004	0.932042	0.153539
F119	F	0.131845	-0.092964	-0.006354
F120	F	0.631845	0.407036	0.493646
H121	H	0.651529	0.479891	0.032960
H122	H	1.151529	0.979891	0.532960
F123	F	0.790988	0.432035	-0.174197
F124	F	1.290988	0.932035	0.325803
