data_functionalizedCrystal
_audit_creation_method	'MofGen! by Chris Wilmer'
_symmetry_space_group_name_H-M	'P1'
_symmetry_Int_Tables_number	1
_symmetry_cell_setting	triclinic
loop_
_symmetry_equiv_pos_as_xyz
  x,y,z
_cell_length_a	18.101395
_cell_length_b	17.077404
_cell_length_c	17.077396
_cell_angle_alpha	90.021457
_cell_angle_beta	89.972533
_cell_angle_gamma	89.969792
loop_
_atom_site_label
_atom_site_type_symbol
_atom_site_fract_x
_atom_site_fract_y
_atom_site_fract_z
Zn1	Zn	-0.294847	-1.200010	-0.443889
Zn2	Zn	-0.418696	-1.199898	-0.312625
Zn3	Zn	-0.294871	-1.068742	-0.312633
Zn4	Zn	-0.418650	-1.068691	-0.443845
O5	O	-0.356766	-1.134335	-0.378248
O6	O	-0.311286	-1.309842	-0.426492
O7	O	-0.402300	-1.182474	-0.202779
O8	O	-0.191235	-1.086223	-0.330066
O9	O	-0.402277	-1.309760	-0.330054
O10	O	-0.191218	-1.182665	-0.426499
O11	O	-0.311326	-1.086114	-0.202785
O12	O	-0.311281	-0.958888	-0.330023
O13	O	-0.402198	-1.086136	-0.553697
O14	O	-0.402221	-0.958851	-0.426423
O15	O	-0.311241	-1.182616	-0.553730
O16	O	-0.522323	-1.182425	-0.330010
O17	O	-0.522289	-1.086028	-0.426416
C18	C	-0.356749	-0.930387	-0.378219
C19	C	-0.356759	-0.843137	-0.378226
C20	C	-0.404182	-0.802148	-0.428340
C21	C	-0.404182	-0.720168	-0.428350
C22	C	-0.356763	-0.679178	-0.378241
C23	C	-0.309334	-0.720173	-0.328124
C24	C	-0.309331	-0.802152	-0.328119
C25	C	-0.309346	-0.549303	-0.328138
C26	C	-0.309350	-0.467318	-0.328141
C27	C	-0.404197	-0.467319	-0.428368
C28	C	-0.404194	-0.549298	-0.428363
C29	C	-0.356766	-0.590287	-0.378245
C30	C	-0.549177	-1.134230	-0.378225
C31	C	-0.631491	-1.134257	-0.378241
C32	C	-0.930581	-1.134429	-0.378284
C33	C	-0.899266	-1.073919	-0.439090
C34	C	-0.813648	-1.073632	-0.438900
C35	C	-0.782199	-1.134344	-0.378263
C36	C	-0.813350	-1.111947	-0.295533
C37	C	-0.898995	-1.111557	-0.295897
C38	C	-0.898926	-1.217469	-0.399479
C39	C	-0.813275	-1.216980	-0.401293
C40	C	-0.698340	-1.134297	-0.378247
C41	C	-1.014441	-1.134474	-0.378295
C42	C	-0.163604	-1.134462	-0.378288
C43	C	-0.081290	-1.134516	-0.378306
C44	C	-0.356711	-1.134383	-0.582992
C45	C	-0.356688	-1.134403	-0.670242
C46	C	-0.356779	-0.339079	-0.378269
C47	C	-0.356773	-0.426329	-0.378255
C48	C	-0.309323	-1.184642	-0.711251
C49	C	-0.309298	-1.184651	-0.793231
C50	C	-0.356643	-1.134425	-0.834202
C51	C	-0.404010	-1.084181	-0.793187
C52	C	-0.404031	-1.084168	-0.711208
C53	C	-0.403966	-1.084212	-0.964058
C54	C	-0.403947	-1.084226	-1.046042
C55	C	-0.309233	-1.184695	-1.046080
C56	C	-0.309254	-1.184683	-0.964101
C57	C	-0.356622	-1.134439	-0.923093
C58	C	-0.356767	-1.134333	-0.174300
C59	C	-0.356581	-1.134465	-0.087051
H60	H	-0.442800	-0.686798	-0.469157
H61	H	-0.791864	-1.264448	-0.360233
O62	O	-0.786304	-1.239365	-0.481940
H63	H	-0.753817	-1.294378	-0.478211
H64	H	-0.270771	-1.225544	-0.677898
H65	H	-0.919813	-1.087793	-0.500632
H66	H	-0.270705	-1.225585	-0.930745
O67	O	-0.258216	-1.238841	-0.837465
H68	H	-0.225306	-1.273772	-0.795203
H69	H	-0.270728	-0.433946	-0.287348
O70	O	-0.925915	-1.277231	-0.340948
H71	H	-0.961679	-1.247979	-0.296956
H72	H	-0.442811	-0.582670	-0.469161
O73	O	-0.258200	-0.593517	-0.274077
H74	H	-0.225234	-0.551244	-0.239225
H75	H	-0.442799	-0.835516	-0.469142
H76	H	-0.442812	-0.433942	-0.469178
O77	O	-0.258207	-0.675955	-0.274065
H78	H	-0.220577	-0.638623	-0.309259
H79	H	-0.270663	-1.225604	-1.079473
H80	H	-0.920851	-1.012743	-0.425227
O81	O	-0.258191	-0.846368	-0.274059
H82	H	-0.225225	-0.804094	-0.239208
H83	H	-0.793224	-1.012081	-0.424860
O84	O	-0.926449	-1.167388	-0.233830
H85	H	-0.878551	-1.194542	-0.203684
H86	H	-0.792584	-1.087644	-0.500244
O87	O	-0.927456	-1.244520	-0.478031
H88	H	-0.964521	-1.199074	-0.502843
O89	O	-0.455003	-1.030048	-1.090237
H90	H	-0.487935	-0.995099	-1.047951
O91	O	-0.455050	-1.030018	-0.919822
H92	H	-0.487973	-0.995098	-0.962082
O93	O	-0.925553	-1.031152	-0.272122
H94	H	-0.877225	-0.992912	-0.260477
O95	O	-0.455070	-1.030000	-0.837374
H96	H	-0.492749	-1.065111	-0.874719
O97	O	-0.455107	-1.029972	-0.666971
H98	H	-0.488027	-0.995049	-0.709232
H99	H	-0.792981	-1.154633	-0.248992
H100	H	-0.791965	-1.051888	-0.277257
