data_functionalizedCrystal
_audit_creation_method	'MofGen! by Chris Wilmer'
_symmetry_space_group_name_H-M	'P1'
_symmetry_Int_Tables_number	1
_symmetry_cell_setting	triclinic
loop_
_symmetry_equiv_pos_as_xyz
  x,y,z
_cell_length_a	6.817900
_cell_length_b	19.453114
_cell_length_c	13.694001
_cell_angle_alpha	80.047400
_cell_angle_beta	106.288079
_cell_angle_gamma	101.709288
loop_
_atom_site_label
_atom_site_type_symbol
_atom_site_fract_x
_atom_site_fract_y
_atom_site_fract_z
V1	V	-4.004940	-0.191871	-0.141195
O2	O	-3.994818	-0.215925	0.005700
O3	O	-3.954732	-0.163911	-0.278922
O4	O	-3.947878	-0.287710	-0.139499
O5	O	-4.001720	-0.091270	-0.134688
V6	V	-4.489925	-0.183075	-0.123568
O7	O	-4.262992	-0.211165	-0.179860
O8	O	-4.682070	-0.163781	-0.084903
O9	O	-4.316926	-0.211035	0.014159
O10	O	-4.617444	-0.159021	-0.270463
O11	O	-4.610542	-0.283676	-0.130075
O12	O	-4.323781	-0.087236	-0.125264
C13	C	-3.799574	-0.154008	-0.312482
C14	C	-3.839752	-0.131787	-0.425079
C15	C	-4.089818	-0.315088	-0.801572
C16	C	-4.052084	-0.335969	-0.695783
C17	C	-3.998998	-0.284925	-0.628102
C18	C	-3.983652	-0.212997	-0.666220
C19	C	-4.021406	-0.192113	-0.772020
C20	C	-3.930586	-0.161951	-0.598550
C21	C	-3.915240	-0.090022	-0.636668
C22	C	-3.952989	-0.069142	-0.742458
C23	C	-4.006075	-0.120186	-0.810139
C24	C	-3.892833	-0.182834	-0.492750
C25	C	-3.824421	-0.059860	-0.463198
C26	C	-3.862155	-0.038978	-0.568987
C27	C	-3.790829	-0.311925	-0.134633
C28	C	-3.825445	-0.390099	-0.134158
C29	C	-4.023424	-0.429422	-0.139019
C30	C	-4.055950	-0.502874	-0.138573
C31	C	-3.890495	-0.536999	-0.133286
C32	C	-3.692486	-0.497667	-0.128418
C33	C	-3.659962	-0.424217	-0.128854
N34	N	-3.830050	-0.645511	-0.186777
N35	N	-3.860960	-0.715285	-0.186365
C36	C	-3.988478	-0.758300	-0.131969
N37	N	-4.083954	-0.728904	-0.078014
N38	N	-4.053049	-0.659123	-0.078431
C39	C	-3.925742	-0.616643	-0.132811
C40	C	-4.221737	-0.877269	-0.136345
C41	C	-4.254254	-0.950724	-0.135892
C42	C	-3.890789	-0.945514	-0.125748
C43	C	-3.858274	-0.872062	-0.126191
C44	C	-4.023757	-0.837944	-0.131494
C45	C	-4.135427	-0.220935	0.047714
C46	C	-4.074487	-0.243161	0.160309
C47	C	-4.144172	-0.063017	-0.130133
C48	C	-4.088794	0.015157	-0.130603
H49	H	-4.036799	-0.103188	-0.896282
H50	H	-3.697064	-0.840044	-0.122243
H51	H	-4.064569	-0.394533	-0.664755
H52	H	-4.356483	-0.849489	-0.140660
H53	H	-3.557772	-0.525456	-0.124110
H54	H	-3.849666	0.019588	-0.600038
H55	H	-3.756068	-0.973298	-0.121434
H56	H	-3.968275	-0.301932	-0.541964
Cl57	Cl	-4.156574	-0.379248	-0.886659
Cl58	Cl	-3.411056	-0.374779	-0.122748
H59	H	-3.781200	-0.018295	-0.408091
Cl60	Cl	-4.503163	-1.000160	-0.142002
H61	H	-3.940515	-0.010573	-0.773490
Cl62	Cl	-4.231459	-0.386535	-0.145680
H63	H	-3.905345	-0.241399	-0.461725
Cl64	Cl	-4.304856	-0.552320	-0.144678
