data_functionalizedCrystal
_audit_creation_method	'MofGen! by Chris Wilmer'
_symmetry_space_group_name_H-M	'P1'
_symmetry_Int_Tables_number	1
_symmetry_cell_setting	triclinic
loop_
_symmetry_equiv_pos_as_xyz
  x,y,z
_cell_length_a	10.654546
_cell_length_b	13.101039
_cell_length_c	10.654551
_cell_angle_alpha	86.602350
_cell_angle_beta	95.515557
_cell_angle_gamma	86.602585
loop_
_atom_site_label
_atom_site_type_symbol
_atom_site_fract_x
_atom_site_fract_y
_atom_site_fract_z
O1	O	-1.674706	0.085381	0.169493
O2	O	-1.309225	0.085344	0.186307
O3	O	-1.500368	0.085364	-0.004839
O4	O	-1.483563	0.085361	0.360639
O5	O	-1.486654	-0.085067	0.008898
O6	O	-1.295510	-0.085087	0.200044
O7	O	-1.660992	-0.085050	0.183231
Zn8	Zn	-1.476074	-0.112128	0.193819
Zn9	Zn	-1.494143	0.112422	0.175719
O10	O	-1.469849	-0.085070	0.374377
C11	C	-1.255569	0.000124	0.191942
C12	C	-1.116124	0.000111	0.188253
N13	N	-1.463752	-0.265378	0.206170
C14	C	-1.036640	0.000121	0.300795
C15	C	-0.905620	0.000132	0.297319
C16	C	-0.933582	0.000126	0.068750
C17	C	-1.064599	0.000108	0.072228
C18	C	-1.088165	0.000123	0.416821
C19	C	-1.008680	0.000135	0.529372
C20	C	-0.877660	0.000145	0.525896
C21	C	-0.826125	0.000145	0.409869
C22	C	-1.446986	-0.474422	0.222987
C23	C	-1.523236	-0.525290	0.146545
C24	C	-1.513908	-0.641610	0.155902
C25	C	-1.456313	-0.358092	0.213632
C26	C	-0.714647	0.000159	0.177599
C27	C	-0.854087	0.000140	0.181300
C28	C	-1.492277	0.000151	-0.044769
C29	C	-1.488585	0.000157	-0.184212
N30	N	-1.506475	0.265672	0.163357
C31	C	-1.494328	0.093057	-0.257212
C32	C	-1.490847	0.093052	-0.388232
C33	C	-1.475885	-0.092761	-0.373241
C34	C	-1.479357	-0.092755	-0.242222
C35	C	-1.503556	0.185970	-0.199203
C36	C	-1.509301	0.278877	-0.272204
C37	C	-1.505821	0.278872	-0.403224
C38	C	-1.496595	0.185959	-0.461243
C39	C	-1.477940	0.000146	0.414306
C40	C	-1.481633	0.000146	0.553749
H41	H	-1.194847	0.000119	0.419663
H42	H	-1.129318	0.000103	-0.019414
C43	C	-1.619314	-0.466699	0.049766
C44	C	-1.609440	-0.361304	0.059457
C45	C	-1.697811	-0.307294	-0.029779
H46	H	-1.603226	-0.484224	-0.032699
H47	H	-1.702057	-0.484021	0.065143
H48	H	-1.526716	-0.343989	0.044072
H49	H	-1.625540	-0.343749	0.141903
H50	H	-1.780554	-0.324616	-0.014403
H51	H	-1.681715	-0.324827	-0.112239
H52	H	-1.691131	-0.235778	-0.023208
C53	C	-0.877396	0.000189	-0.057094
C54	C	-0.745646	0.000237	-0.036053
C55	C	-0.693849	0.000312	-0.151954
H56	H	-0.899666	-0.059230	-0.098793
H57	H	-0.909348	0.059644	-0.108284
H58	H	-0.713706	-0.059213	0.015116
H59	H	-0.723341	0.059651	0.005626
H60	H	-0.725801	0.059768	-0.203144
H61	H	-0.716128	-0.059107	-0.193644
H62	H	-0.604453	0.000354	-0.137694
H63	H	-0.719437	0.000138	0.407049
C64	C	-1.512238	0.379663	-0.482660
C65	C	-1.618520	0.385083	-0.571534
C66	C	-1.624469	0.477913	-0.644741
H67	H	-1.518297	0.435080	-0.429501
H68	H	-1.438119	0.383529	-0.525214
H69	H	-1.692620	0.381226	-0.528982
H70	H	-1.612484	0.329687	-0.624721
H71	H	-1.550350	0.481780	-0.687295
H72	H	-1.630525	0.533323	-0.591571
H73	H	-1.696573	0.481599	-0.705057
H74	H	-1.374707	-0.518227	0.295455
C75	C	-1.064464	0.000292	0.655415
C76	C	-1.031210	0.087965	0.716460
C77	C	-1.082558	0.088136	0.832583
H78	H	-1.153880	0.000338	0.641547
H79	H	-1.032415	-0.059109	0.706659
H80	H	-1.063265	0.147350	0.665227
H81	H	-0.941804	0.087937	0.730360
H82	H	-1.050508	0.028736	0.883828
H83	H	-1.171971	0.088180	0.818703
H84	H	-1.059992	0.147616	0.874022
C85	C	-1.519094	0.379678	-0.209035
C86	C	-1.413675	0.385082	-0.121044
C87	C	-1.422650	0.477923	-0.062824
H88	H	-1.521951	0.435086	-0.271141
H89	H	-1.593832	0.383573	-0.167100
H90	H	-1.338957	0.381197	-0.162977
H91	H	-1.410798	0.329696	-0.058914
H92	H	-1.497388	0.481818	-0.020889
H93	H	-1.425510	0.533323	-0.124939
H94	H	-1.351133	0.481598	-0.003108
H95	H	-1.493743	0.185963	-0.567926
C96	C	-1.466075	-0.193707	-0.436091
C97	C	-1.570251	-0.249759	-0.412865
C98	C	-1.561252	-0.342761	-0.470727
H99	H	-1.464885	-0.180548	-0.524591
H100	H	-1.390495	-0.231942	-0.402574
H101	H	-1.645811	-0.211532	-0.446387
H102	H	-1.571461	-0.262945	-0.324376
H103	H	-1.485672	-0.380997	-0.437211
H104	H	-1.560059	-0.329593	-0.559225
H105	H	-1.631926	-0.380808	-0.454967
H106	H	-1.506395	0.185984	-0.092521
H107	H	-1.474653	-0.168403	-0.182780
H108	H	-0.812944	0.000144	0.617541
