data_functionalizedCrystal
_audit_creation_method	'MofGen! by Chris Wilmer'
_symmetry_space_group_name_H-M	'P1'
_symmetry_Int_Tables_number	1
_symmetry_cell_setting	triclinic
loop_
_symmetry_equiv_pos_as_xyz
  x,y,z
_cell_length_a	17.038272
_cell_length_b	16.109301
_cell_length_c	14.586319
_cell_angle_alpha	89.996198
_cell_angle_beta	90.002130
_cell_angle_gamma	87.286570
loop_
_atom_site_label
_atom_site_type_symbol
_atom_site_fract_x
_atom_site_fract_y
_atom_site_fract_z
O1	O	-1.037364	-0.180538	0.076126
O2	O	-0.809734	-0.177672	0.076153
O3	O	-0.929802	-0.058518	0.076133
O4	O	-0.917296	-0.299692	0.076146
O5	O	-0.929794	-0.058516	-0.076348
O6	O	-0.809725	-0.177669	-0.076328
O7	O	-1.037356	-0.180536	-0.076355
Cu8	Cu	-0.923540	-0.179102	-0.090264
Cu9	Cu	-0.923550	-0.179105	0.090062
O10	O	-0.917288	-0.299689	-0.076335
C11	C	-0.780601	-0.175063	-0.000084
C12	C	-0.693808	-0.167284	-0.000074
C13	C	-1.066488	-0.183145	-0.000116
C14	C	-1.153281	-0.190924	-0.000120
C15	C	-0.643694	-0.238705	-0.000071
C16	C	-0.562143	-0.231391	-0.000084
C17	C	-0.530709	-0.152655	-0.000093
C18	C	-0.580830	-0.081229	-0.000100
C19	C	-0.662379	-0.088544	-0.000093
C20	C	-0.284951	-0.126813	-0.000119
C21	C	-0.203396	-0.119503	-0.000123
C22	C	-0.184715	-0.269665	-0.000109
C23	C	-0.266266	-0.276973	-0.000097
C24	C	-0.316380	-0.205547	-0.000108
C25	C	-0.447352	-0.145177	-0.000104
C26	C	-0.399736	-0.213026	-0.000104
C27	C	-0.929291	-0.027506	-0.000107
C28	C	-0.927773	0.064897	-0.000106
C29	C	-0.917798	-0.330702	-0.000093
C30	C	-0.919317	-0.423105	-0.000088
C31	C	-0.994054	0.369188	-0.000098
C32	C	-0.995488	0.282366	-0.000103
C33	C	-0.853031	0.272610	-0.000099
C34	C	-0.851597	0.359430	-0.000100
C35	C	-0.922111	0.407717	-0.000095
C36	C	-0.924979	0.234075	-0.000099
C37	C	-0.926534	0.139938	-0.000105
C38	C	-0.920556	0.501860	-0.000091
N39	N	-0.923539	-0.179100	-0.217096
C40	C	-0.976723	-0.126359	-0.452111
C41	C	-0.976725	-0.126357	-0.548092
C42	C	-0.870368	-0.231845	-0.548084
C43	C	-0.870362	-0.231842	-0.452104
C44	C	-0.923544	-0.179100	-0.404121
C45	C	-0.923552	-0.179101	-0.596081
C46	C	-0.923554	-0.179100	-0.700148
C47	C	-0.923541	-0.179100	-0.300047
N48	N	-0.923557	-0.179101	0.216894
H49	H	-0.669281	-0.302820	-0.000062
H50	H	-1.020025	-0.083413	-0.413045
H51	H	-0.793009	0.390801	-0.000101
H52	H	-0.555230	-0.017121	-0.000121
H53	H	-0.827054	-0.274790	-0.413028
F54	F	-0.777989	0.221212	-0.000099
H55	H	-0.521343	-0.289549	-0.000080
H56	H	-1.020027	-0.083410	-0.587164
H57	H	-0.291853	-0.341088	-0.000078
F58	F	-0.131375	-0.345676	-0.000099
F59	F	-0.715715	-0.012528	-0.000100
F60	F	-0.169944	-0.035698	-0.000150
F61	F	-0.813772	-0.287975	-0.599158
F62	F	-0.413890	-0.061382	-0.000111
H63	H	-0.325745	-0.068652	-0.000129
H64	H	-0.425333	-0.277132	-0.000101
H65	H	-1.051471	0.408501	-0.000094
F66	F	-1.072059	0.241364	-0.000105
