data_functionalizedCrystal
_audit_creation_method	'MofGen! by Chris Wilmer'
_symmetry_space_group_name_H-M	'P1'
_symmetry_Int_Tables_number	1
_symmetry_cell_setting	triclinic
loop_
_symmetry_equiv_pos_as_xyz
  x,y,z
_cell_length_a	15.995343
_cell_length_b	15.995350
_cell_length_c	15.072220
_cell_angle_alpha	90.008851
_cell_angle_beta	89.994148
_cell_angle_gamma	96.509220
loop_
_atom_site_label
_atom_site_type_symbol
_atom_site_fract_x
_atom_site_fract_y
_atom_site_fract_z
O1	O	0.107921	-1.110993	-0.073717
O2	O	0.357921	-0.860993	0.176283
O3	O	0.607921	-0.610993	0.426283
O4	O	0.857921	-0.360993	0.676283
O5	O	0.121249	-0.867217	-0.073736
O6	O	0.371249	-0.617217	0.176264
O7	O	0.621249	-0.367217	0.426264
O8	O	0.871249	-0.117217	0.676264
O9	O	-0.007303	-0.995772	-0.073709
O10	O	0.242697	-0.745772	0.176291
O11	O	0.492697	-0.495772	0.426291
O12	O	0.742697	-0.245772	0.676291
O13	O	0.236473	-0.982438	-0.073743
O14	O	0.486473	-0.732438	0.176257
O15	O	0.736473	-0.482438	0.426257
O16	O	0.986473	-0.232438	0.676257
O17	O	-0.007296	-0.995740	0.073856
O18	O	0.242704	-0.745740	0.323856
O19	O	0.492704	-0.495740	0.573856
O20	O	0.742704	-0.245740	0.823856
O21	O	0.121256	-0.867185	0.073829
O22	O	0.371256	-0.617185	0.323829
O23	O	0.621256	-0.367185	0.573829
O24	O	0.871256	-0.117185	0.823829
O25	O	0.107929	-1.110961	0.073848
O26	O	0.357929	-0.860961	0.323848
O27	O	0.607929	-0.610961	0.573848
O28	O	0.857929	-0.360961	0.823848
Zn29	Zn	0.114593	-0.989068	0.097268
Zn30	Zn	0.364593	-0.739068	0.347268
Zn31	Zn	0.614593	-0.489068	0.597268
Zn32	Zn	0.864593	-0.239068	0.847268
Zn33	Zn	0.114584	-0.989110	-0.097156
Zn34	Zn	0.364584	-0.739110	0.152844
Zn35	Zn	0.614584	-0.489110	0.402844
Zn36	Zn	0.864584	-0.239110	0.652844
O37	O	0.236480	-0.982406	0.073822
O38	O	0.486480	-0.732406	0.323822
O39	O	0.736480	-0.482406	0.573822
O40	O	0.986480	-0.232406	0.823822
C41	C	0.120702	-0.836007	0.000044
C42	C	0.370702	-0.586007	0.250044
C43	C	0.620702	-0.336007	0.500044
C44	C	0.870702	-0.086007	0.750044
C45	C	0.119050	-0.743056	0.000037
C46	C	0.369050	-0.493056	0.250037
C47	C	0.619050	-0.243056	0.500037
C48	C	0.869050	0.006944	0.750037
C49	C	-0.038494	-0.995206	0.000075
C50	C	0.211506	-0.745206	0.250075
C51	C	0.461506	-0.495206	0.500075
C52	C	0.711506	-0.245206	0.750075
C53	C	-0.131445	-0.993557	0.000082
C54	C	0.118555	-0.743557	0.250082
C55	C	0.368555	-0.493557	0.500082
C56	C	0.618555	-0.243557	0.750082
N57	N	0.114599	-0.989046	0.229957
N58	N	0.364599	-0.739046	0.479957
N59	N	0.614599	-0.489046	0.729957
N60	N	0.864599	-0.239046	0.979957
C61	C	-0.301631	-0.990563	0.000062
C62	C	-0.051631	-0.740563	0.250062
C63	C	0.198369	-0.490563	0.500062
C64	C	0.448369	-0.240563	0.750062
C65	C	-0.324977	-0.897766	0.000052
C66	C	-0.074977	-0.647766	0.250052
C67	C	0.175023	-0.397766	0.500052
C68	C	0.425023	-0.147766	0.750052
C69	C	-0.421655	-0.896021	-0.000293
C70	C	-0.171655	-0.646021	0.249707
C71	C	0.078345	-0.396021	0.499707
C72	C	0.328345	-0.146021	0.749707
C73	C	-0.469191	-0.987615	0.000043
C74	C	-0.219191	-0.737615	0.250043
C75	C	0.030809	-0.487615	0.500043
C76	C	0.280809	-0.237615	0.750043
C77	C	-0.440096	-1.034293	-0.084051
C78	C	-0.190096	-0.784293	0.165949
C79	C	0.059904	-0.534293	0.415949
C80	C	0.309904	-0.284293	0.665949
C81	C	-0.343304	-1.035394	-0.084112
C82	C	-0.093304	-0.785394	0.165888
C83	C	0.156696	-0.535394	0.415888
C84	C	0.406696	-0.285394	0.665888
C85	C	-0.343400	-1.036716	0.083703
C86	C	-0.093400	-0.786716	0.333703
C87	C	0.156600	-0.536716	0.583703
C88	C	0.406600	-0.286716	0.833703
C89	C	-0.439895	-1.033290	0.084799
C90	C	-0.189895	-0.783290	0.334799
C91	C	0.060105	-0.533290	0.584799
C92	C	0.310105	-0.283290	0.834799
C93	C	-0.563889	-0.985953	0.000029
C94	C	-0.313889	-0.735953	0.250029
C95	C	-0.063889	-0.485953	0.500029
C96	C	0.186111	-0.235953	0.750029
C97	C	-0.206933	-0.992228	0.000070
C98	C	0.043067	-0.742228	0.250070
C99	C	0.293067	-0.492228	0.500070
C100	C	0.543067	-0.242228	0.750070
C101	C	0.267672	-0.982972	0.000035
C102	C	0.517672	-0.732972	0.250035
C103	C	0.767672	-0.482972	0.500035
C104	C	1.017672	-0.232972	0.750035
C105	C	0.360622	-0.984621	0.000022
C106	C	0.610622	-0.734621	0.250022
C107	C	0.860622	-0.484621	0.500022
C108	C	1.110622	-0.234621	0.750022
C109	C	0.108476	-1.142172	0.000066
C110	C	0.358476	-0.892172	0.250066
C111	C	0.608476	-0.642172	0.500066
C112	C	0.858476	-0.392172	0.750066
C113	C	0.110128	-1.235122	0.000067
C114	C	0.360128	-0.985122	0.250067
C115	C	0.610128	-0.735122	0.500067
C116	C	0.860128	-0.485122	0.750067
C117	C	0.113118	-0.405309	0.000057
C118	C	0.363118	-0.155309	0.250057
C119	C	0.613118	0.094691	0.500057
C120	C	0.863118	0.344691	0.750057
C121	C	0.021565	-0.452745	0.000399
C122	C	0.271565	-0.202745	0.250399
C123	C	0.521565	0.047255	0.500399
C124	C	0.771565	0.297255	0.750399
C125	C	0.023217	-0.549436	0.000060
C126	C	0.273217	-0.299436	0.250060
C127	C	0.523217	-0.049436	0.500060
C128	C	0.773217	0.200564	0.750060
C129	C	0.116060	-0.572869	0.000048
C130	C	0.366060	-0.322869	0.250048
C131	C	0.616060	-0.072869	0.500048
C132	C	0.866060	0.177131	0.750048
C133	C	0.161213	-0.531799	-0.084222
C134	C	0.411213	-0.281799	0.165778
C135	C	0.661213	-0.031799	0.415778
C136	C	0.911213	0.218201	0.665778
C137	C	0.158913	-0.435163	-0.084286
C138	C	0.408913	-0.185163	0.165714
C139	C	0.658913	0.064837	0.415714
C140	C	0.908913	0.314837	0.665714
C141	C	0.160812	-0.434788	0.083523
C142	C	0.410812	-0.184788	0.333523
C143	C	0.660812	0.065212	0.583523
C144	C	0.910812	0.315212	0.833523
C145	C	0.160791	-0.531734	0.084630
C146	C	0.410791	-0.281734	0.334630
C147	C	0.660791	-0.031734	0.584630
C148	C	0.910791	0.218266	0.834630
C149	C	0.117728	-0.667567	0.000040
C150	C	0.367728	-0.417567	0.250040
C151	C	0.617728	-0.167567	0.500040
C152	C	0.867728	0.082433	0.750040
C153	C	0.111452	-0.310611	0.000059
C154	C	0.361452	-0.060611	0.250059
C155	C	0.611452	0.189389	0.500059
C156	C	0.861452	0.439389	0.750059
N157	N	0.114572	-0.989139	-0.229844
N158	N	0.364572	-0.739139	0.020156
N159	N	0.614572	-0.489139	0.270156
N160	N	0.864572	-0.239139	0.520156
C161	C	0.114581	-0.989108	0.589158
C162	C	0.364581	-0.739108	0.839158
C163	C	0.614581	-0.489108	1.089158
C164	C	0.864581	-0.239108	1.339158
C165	C	0.183136	-0.920090	0.551537
C166	C	0.433136	-0.670090	0.801537
C167	C	0.683136	-0.420090	1.051537
C168	C	0.933136	-0.170090	1.301537
C169	C	0.183386	-0.920248	0.448711
C170	C	0.433386	-0.670248	0.698711
C171	C	0.683386	-0.420248	0.948711
C172	C	0.933386	-0.170248	1.198711
C173	C	0.114590	-0.989077	0.410954
C174	C	0.364590	-0.739077	0.660954
C175	C	0.614590	-0.489077	0.910954
C176	C	0.864590	-0.239077	1.160954
C177	C	0.133672	-1.076441	0.448249
C178	C	0.383672	-0.826441	0.698249
C179	C	0.633672	-0.576441	0.948249
C180	C	0.883672	-0.326441	1.198249
C181	C	0.134159	-1.076054	0.551107
C182	C	0.384159	-0.826054	0.801107
C183	C	0.634159	-0.576054	1.051107
C184	C	0.884159	-0.326054	1.301107
C185	C	0.026741	-0.971541	0.551269
C186	C	0.276741	-0.721541	0.801269
C187	C	0.526741	-0.471541	1.051269
C188	C	0.776741	-0.221541	1.301269
C189	C	0.027327	-0.969537	0.448405
C190	C	0.277327	-0.719537	0.698405
C191	C	0.527327	-0.469537	0.948405
C192	C	0.777327	-0.219537	1.198405
C193	C	0.114594	-0.989064	0.310241
C194	C	0.364594	-0.739064	0.560241
C195	C	0.614594	-0.489064	0.810241
C196	C	0.864594	-0.239064	1.060241
C197	C	0.114579	-0.989127	0.689871
C198	C	0.364579	-0.739127	0.939871
C199	C	0.614579	-0.489127	1.189871
C200	C	0.864579	-0.239127	1.439871
H201	H	-0.440676	-0.859475	0.059972
H202	H	-0.190676	-0.609475	0.309972
H203	H	0.059324	-0.359475	0.559972
H204	H	0.309324	-0.109475	0.809972
H205	H	-0.012275	-0.577853	0.060468
H206	H	0.237725	-0.327853	0.310468
H207	H	0.487725	-0.077853	0.560468
H208	H	0.737725	0.172147	0.810468
F209	F	0.121693	-0.407934	0.167011
F210	F	0.371693	-0.157934	0.417011
F211	F	0.621693	0.092066	0.667011
F212	F	0.871693	0.342066	0.917011
F213	F	-0.026264	-0.428516	0.079390
F214	F	0.223736	-0.178516	0.329390
F215	F	0.473736	0.071484	0.579390
F216	F	0.723736	0.321484	0.829390
F217	F	-0.042479	-1.030980	0.414826
F218	F	0.207521	-0.780980	0.664826
F219	F	0.457521	-0.530980	0.914826
F220	F	0.707521	-0.280980	1.164826
F221	F	0.216449	-1.097161	0.414559
F222	F	0.466449	-0.847161	0.664559
F223	F	0.716449	-0.597161	0.914559
F224	F	0.966449	-0.347161	1.164559
H225	H	-0.024275	-1.021873	0.575598
H226	H	0.225725	-0.771873	0.825598
H227	H	0.475725	-0.521873	1.075598
H228	H	0.725725	-0.271873	1.325598
H229	H	0.008392	-0.909219	0.577257
H230	H	0.258392	-0.659219	0.827257
H231	H	0.508392	-0.409219	1.077257
H232	H	0.758392	-0.159219	1.327257
H233	H	-0.315132	-1.007425	0.147467
H234	H	-0.065132	-0.757425	0.397467
H235	H	0.184868	-0.507425	0.647467
H236	H	0.434868	-0.257425	0.897467
H237	H	0.127830	-0.559038	0.146973
H238	H	0.377830	-0.309038	0.396973
H239	H	0.627830	-0.059038	0.646973
H240	H	0.877830	0.190962	0.896973
H241	H	0.226129	-0.402914	-0.088119
H242	H	0.476129	-0.152914	0.161881
H243	H	0.726129	0.097086	0.411881
H244	H	0.976129	0.347086	0.661881
H245	H	0.171954	-0.854941	0.576295
H246	H	0.421954	-0.604941	0.826295
H247	H	0.671954	-0.354941	1.076295
H248	H	0.921954	-0.104941	1.326295
F249	F	0.115866	-0.411249	-0.166611
F250	F	0.365866	-0.161249	0.083389
F251	F	0.615866	0.088751	0.333389
F252	F	0.865866	0.338751	0.583389
H253	H	0.248570	-0.931466	0.424089
H254	H	0.498570	-0.681466	0.674089
H255	H	0.748570	-0.431466	0.924089
H256	H	0.998570	-0.181466	1.174089
H257	H	0.172017	-0.855309	0.423497
H258	H	0.422017	-0.605309	0.673497
H259	H	0.672017	-0.355309	0.923497
H260	H	0.922017	-0.105309	1.173497
F261	F	0.250360	-0.550279	-0.088346
F262	F	0.500360	-0.300279	0.161654
F263	F	0.750360	-0.050279	0.411654
F264	F	1.000360	0.199721	0.661654
H265	H	0.129846	-0.560188	-0.146929
H266	H	0.379846	-0.310188	0.103071
H267	H	0.629846	-0.060188	0.353071
H268	H	0.879846	0.189812	0.603071
F269	F	0.249288	-0.551808	0.091271
F270	F	0.499288	-0.301808	0.341271
F271	F	0.749288	-0.051808	0.591271
F272	F	0.999288	0.198192	0.841271
H273	H	0.228313	-0.403025	0.084084
H274	H	0.478313	-0.153025	0.334084
H275	H	0.728313	0.096975	0.584084
H276	H	0.978313	0.346975	0.834084
H277	H	0.086196	-1.129016	0.575992
H278	H	0.336196	-0.879016	0.825992
H279	H	0.586196	-0.629016	1.075992
H280	H	0.836196	-0.379016	1.325992
F281	F	0.267860	-0.934557	0.585284
F282	F	0.517860	-0.684557	0.835284
F283	F	0.767860	-0.434557	1.085284
F284	F	1.017860	-0.184557	1.335284
F285	F	0.217891	-1.096288	0.582445
F286	F	0.467891	-0.846288	0.832445
F287	F	0.717891	-0.596288	1.082445
F288	F	0.967891	-0.346288	1.332445
H289	H	-0.460184	-1.002291	-0.146879
H290	H	-0.210184	-0.752291	0.103121
H291	H	0.039816	-0.502291	0.353121
H292	H	0.289816	-0.252291	0.603121
H293	H	0.085068	-1.129026	0.423790
H294	H	0.335068	-0.879026	0.673790
H295	H	0.585068	-0.629026	0.923790
H296	H	0.835068	-0.379026	1.173790
F297	F	-0.464154	-0.988861	0.166119
F298	F	-0.214154	-0.738861	0.416119
F299	F	0.035846	-0.488861	0.666119
F300	F	0.285846	-0.238861	0.916119
H301	H	0.012846	-0.905271	0.424030
H302	H	0.262846	-0.655271	0.674030
H303	H	0.512846	-0.405271	0.924030
H304	H	0.762846	-0.155271	1.174030
H305	H	-0.328730	-1.103445	-0.087691
H306	H	-0.078730	-0.853445	0.162309
H307	H	0.171270	-0.603445	0.412309
H308	H	0.421270	-0.353445	0.662309
H309	H	-0.296971	-0.861784	0.060349
H310	H	-0.046971	-0.611784	0.310349
H311	H	0.203029	-0.361784	0.560349
H312	H	0.453029	-0.111784	0.810349
H313	H	-0.440090	-0.859683	-0.060937
H314	H	-0.190090	-0.609683	0.189063
H315	H	0.059910	-0.359683	0.439063
H316	H	0.309910	-0.109683	0.689063
F317	F	-0.287092	-0.851533	-0.078660
F318	F	-0.037092	-0.601533	0.171340
F319	F	0.212908	-0.351533	0.421340
F320	F	0.462908	-0.101533	0.671340
F321	F	-0.325082	-1.125993	0.084775
F322	F	-0.075082	-0.875993	0.334775
F323	F	0.174918	-0.625993	0.584775
F324	F	0.424918	-0.375993	0.834775
F325	F	-0.481719	-1.122405	-0.087827
F326	F	-0.231719	-0.872405	0.162173
F327	F	0.018281	-0.622405	0.412173
F328	F	0.268281	-0.372405	0.662173
F329	F	-0.308287	-0.993669	-0.166596
F330	F	-0.058287	-0.743669	0.083404
F331	F	0.191713	-0.493669	0.333404
F332	F	0.441713	-0.243669	0.583404
H333	H	-0.472843	-1.100125	0.090135
H334	H	-0.222843	-0.850125	0.340135
H335	H	0.027157	-0.600125	0.590135
H336	H	0.277157	-0.350125	0.840135
H337	H	-0.014865	-0.433166	-0.059692
H338	H	0.235135	-0.183166	0.190308
H339	H	0.485135	0.066834	0.440308
H340	H	0.735135	0.316834	0.690308
F341	F	-0.023306	-0.585845	-0.079149
F342	F	0.226694	-0.335845	0.170851
F343	F	0.476694	-0.085845	0.420851
F344	F	0.726694	0.164155	0.670851
