data_functionalizedCrystal
_audit_creation_method	'MofGen! by Chris Wilmer'
_symmetry_space_group_name_H-M	'P1'
_symmetry_Int_Tables_number	1
_symmetry_cell_setting	triclinic
loop_
_symmetry_equiv_pos_as_xyz
  x,y,z
_cell_length_a	19.902436
_cell_length_b	14.560438
_cell_length_c	14.560438
_cell_angle_alpha	59.999712
_cell_angle_beta	90.004686
_cell_angle_gamma	60.012444
loop_
_atom_site_label
_atom_site_type_symbol
_atom_site_fract_x
_atom_site_fract_y
_atom_site_fract_z
Zr1	Zr	-0.088041	1.005161	0.884809
O2	O	-0.195303	1.196731	0.738168
O3	O	-0.055173	0.813580	0.929757
O4	O	-0.195319	1.005143	0.929765
O5	O	0.055408	1.005186	0.738160
O6	O	-0.195316	1.005140	1.080905
O7	O	-0.055157	1.005169	0.738160
O8	O	0.055380	0.662470	1.080892
O9	O	-0.195287	1.347856	0.738174
O10	O	-0.041136	0.892382	1.061728
O11	O	0.041375	0.892397	0.948933
O12	O	-0.123628	1.117937	0.948942
O13	O	-0.041117	1.117952	0.836147
Zr14	Zr	0.088305	1.005185	1.125861
Zr15	Zr	-0.088035	1.005156	1.125861
Zr16	Zr	0.088299	1.005189	0.884809
Zr17	Zr	-0.088015	1.246188	0.884818
Zr18	Zr	0.088279	0.764157	1.125851
O19	O	0.055437	1.196765	1.080913
O20	O	-0.195295	1.196724	1.080913
O21	O	0.055429	1.196771	0.738168
O22	O	0.195567	0.813614	1.272502
O23	O	-0.055165	0.813574	1.272502
O24	O	0.195559	0.813621	0.929757
O25	O	-0.055145	1.005159	1.272510
O26	O	0.195583	1.005203	1.080905
O27	O	0.195580	1.005205	0.929764
O28	O	0.055421	1.005176	1.272510
O29	O	-0.195282	1.347853	0.929778
O30	O	0.195546	0.662492	1.080891
O31	O	0.195551	0.662489	1.272496
O32	O	0.055384	0.662466	1.272496
O33	O	-0.055121	1.347879	0.738174
O34	O	-0.055116	1.347875	0.929778
O35	O	0.123892	0.892408	1.061728
O36	O	0.041381	0.892393	1.174522
O37	O	-0.041112	1.117948	1.061737
O38	O	0.041400	1.117963	0.948942
C39	C	0.000100	0.703684	1.005323
C40	C	0.000089	0.601361	1.005319
C41	C	-0.060793	0.636480	0.922061
C42	C	-0.060752	0.540291	0.922079
C43	C	0.061061	0.373866	1.088617
C44	C	0.061015	0.470054	1.088603
C45	C	-0.131119	0.732563	0.825908
C46	C	-0.131078	0.636374	0.825926
C47	C	-0.220442	1.005137	1.005335
C48	C	-0.295303	1.005125	1.005335
C49	C	-0.567351	1.005189	1.005334
C50	C	-0.486823	0.862904	1.076821
C51	C	-0.408920	0.862815	1.076511
C52	C	-0.432385	1.005156	1.005336
C53	C	-0.486500	1.075819	0.882778
C54	C	-0.564062	1.074910	0.883169
C55	C	-0.565197	1.077829	1.055417
C56	C	-0.486319	1.075155	1.057897
C57	C	-0.356110	1.005145	1.005329
C58	C	-0.643628	1.005204	1.005332
C59	C	0.220706	1.005208	1.005335
C60	C	0.295567	1.005220	1.005335
C61	C	0.000125	1.005178	0.703815
C62	C	0.000122	1.005180	0.601482
C63	C	0.000164	1.306661	1.005347
C64	C	0.000175	1.408984	1.005351
C65	C	-0.060788	1.005172	0.553399
C66	C	-0.060777	1.005160	0.457253
C67	C	0.061058	1.005169	0.457280
C68	C	0.061050	1.005172	0.553428
C69	C	-0.131130	1.005173	0.553380
C70	C	-0.131119	1.005161	0.457234
C71	C	0.000139	1.005167	1.306855
C72	C	0.000142	1.005165	1.409188
C73	C	0.000107	0.703678	1.306843
C74	C	0.000098	0.601354	1.409172
C75	C	0.220674	0.703719	1.005323
C76	C	0.295523	0.601409	1.005318
C77	C	0.220681	0.703714	1.306842
C78	C	0.295533	0.601401	1.409171
C79	C	-0.220417	1.306632	0.703827
C80	C	-0.295269	1.408944	0.601498
C81	C	0.000157	1.306667	0.703827
C82	C	0.000166	1.408992	0.601498
C83	C	-0.220410	1.306626	1.005347
C84	C	-0.295260	1.408936	1.005351
C85	C	0.373754	0.553369	1.064194
C86	C	0.444090	0.457250	1.064186
C87	C	0.436194	0.409168	1.005308
C88	C	0.357955	0.457217	0.946425
C89	C	0.287621	0.553340	0.946427
C90	C	0.287615	0.553346	1.516114
C91	C	0.357939	0.457226	1.612272
C92	C	0.436182	0.409156	1.601485
C93	C	0.444099	0.457221	1.494531
C94	C	0.373775	0.553346	1.398375
C95	C	-0.287351	1.457011	0.494556
C96	C	-0.357676	1.553160	0.398398
C97	C	-0.435918	1.601235	0.409185
C98	C	-0.443835	1.553165	0.516139
C99	C	-0.373511	1.457023	0.612294
C100	C	-0.287337	1.456989	1.064241
C101	C	-0.357660	1.553107	1.064267
C102	C	-0.435904	1.601179	1.005396
C103	C	-0.443825	1.553117	0.946504
C104	C	-0.373503	1.456993	0.946486
C105	C	-0.042976	0.553272	1.398371
C106	C	-0.042987	0.457135	1.494524
C107	C	0.043158	0.457166	1.612274
C108	C	0.043163	0.553308	1.516122
C109	C	-0.092708	0.553249	1.330390
C110	C	-0.092719	0.457112	1.426543
H111	H	-0.118834	0.792240	0.749437
H112	H	0.493471	0.330898	1.005315
Cl113	Cl	-0.223849	1.144699	0.347149
Cl114	Cl	0.348042	0.396754	0.872415
H115	H	-0.187009	0.636331	0.842724
H116	H	-0.156398	0.493235	1.435270
H117	H	-0.493158	1.679449	1.005420
Cl118	Cl	-0.188997	1.396593	0.480965
Cl119	Cl	0.097294	0.396758	1.746729
Cl120	Cl	-0.347704	1.613567	0.263956
Cl121	Cl	0.189276	0.613715	0.872412
H122	H	0.223912	0.592470	1.524918
H123	H	-0.507541	1.592272	0.898573
H124	H	-0.125001	0.647191	0.743813
H125	H	-0.223633	1.417864	1.112180
H126	H	-0.369529	0.807374	1.166759
Cl127	Cl	0.383744	0.613738	1.263937
Cl128	Cl	0.097304	0.613767	1.529706
Cl129	Cl	0.524583	0.288310	1.722379
Cl130	Cl	-0.524319	1.722098	0.288291
Cl131	Cl	-0.484208	0.776662	1.216518
H132	H	-0.379968	1.417888	0.699369
H133	H	-0.486080	0.807339	1.042401
H134	H	-0.379965	1.417880	0.898526
Cl135	Cl	-0.347683	1.613515	1.138299
Cl136	Cl	-0.542204	1.613610	0.529680
H137	H	-0.158560	0.643243	1.278194
Cl138	Cl	0.542468	0.396774	1.480989
Cl139	Cl	-0.223879	0.829780	0.838688
H140	H	-0.059894	0.517123	1.279473
Cl141	Cl	-0.348687	0.776765	1.022794
Cl142	Cl	-0.050013	0.318137	1.426544
H143	H	0.380199	0.592507	1.112140
H144	H	0.507788	0.418140	1.112139
H145	H	0.351479	0.418102	1.699350
H146	H	-0.621088	1.179302	0.827007
Cl147	Cl	0.137650	0.208794	1.193311
Cl148	Cl	0.137549	0.425898	1.193285
H149	H	-0.563873	1.024696	0.843075
H150	H	-0.506255	1.180478	0.827201
H151	H	-0.118837	0.911894	0.474047
H152	H	-0.568186	1.032290	1.144304
Cl153	Cl	-0.428687	1.000057	0.820433
H154	H	-0.449001	1.023621	1.148193
Cl155	Cl	-0.514909	1.235491	0.985860
H156	H	-0.621946	1.182656	1.003579
H157	H	0.110664	1.005161	0.418145
Cl158	Cl	0.137634	1.005155	0.613890
H159	H	-0.125074	0.914775	0.624670
H160	H	-0.187068	1.098428	0.536564
