data_functionalizedCrystal
_audit_creation_method	'MofGen! by Chris Wilmer'
_symmetry_space_group_name_H-M	'P1'
_symmetry_Int_Tables_number	1
_symmetry_cell_setting	triclinic
loop_
_symmetry_equiv_pos_as_xyz
  x,y,z
_cell_length_a	17.038272
_cell_length_b	17.038272
_cell_length_c	16.098538
_cell_angle_alpha	87.079695
_cell_angle_beta	87.069734
_cell_angle_gamma	88.888444
loop_
_atom_site_label
_atom_site_type_symbol
_atom_site_fract_x
_atom_site_fract_y
_atom_site_fract_z
O1	O	1.052033	-0.167266	-0.069152
O2	O	0.824222	-0.164557	-0.069177
O3	O	0.936773	-0.052006	-0.069158
O4	O	0.939482	-0.279817	-0.069171
O5	O	0.930197	-0.058553	0.069354
O6	O	0.817646	-0.171104	0.069335
O7	O	1.045456	-0.173813	0.069359
Zn8	Zn	0.930507	-0.173498	0.091339
Zn9	Zn	0.939172	-0.164872	-0.091156
O10	O	0.932905	-0.286364	0.069341
C11	C	0.791641	-0.165367	0.000076
C12	C	0.704358	-0.158019	0.000067
C13	C	0.658749	-0.225482	0.000064
C14	C	0.576737	-0.218574	0.000075
C15	C	0.540335	-0.144201	0.000085
C16	C	0.585950	-0.076733	0.000090
C17	C	0.667961	-0.083642	0.000084
C18	C	0.292946	-0.119792	0.000108
C19	C	0.210929	-0.112887	0.000112
C20	C	0.201722	-0.254729	0.000098
C21	C	0.283734	-0.261632	0.000088
C22	C	0.329342	-0.194164	0.000098
C23	C	0.456505	-0.137138	0.000094
C24	C	0.413170	-0.201228	0.000094
C25	C	0.931022	-0.025987	0.000097
C26	C	0.923674	0.061297	0.000096
C27	C	1.078037	-0.173002	0.000105
C28	C	1.165320	-0.180351	0.000108
C29	C	0.938656	-0.312383	0.000083
C30	C	0.946005	-0.399666	0.000079
N31	N	0.924599	-0.179385	0.215887
C32	C	0.991137	0.106906	0.000104
C33	C	0.984229	0.188918	0.000096
C34	C	0.909856	0.225320	0.000085
C35	C	0.842388	0.179705	0.000074
C36	C	0.849297	0.097694	0.000077
C37	C	0.885446	0.472708	0.000071
C38	C	0.878541	0.554725	0.000071
C39	C	1.020383	0.563932	0.000091
C40	C	1.027286	0.481920	0.000098
C41	C	0.959818	0.436312	0.000083
C42	C	0.902792	0.309149	0.000079
C43	C	0.966882	0.352485	0.000084
N44	N	0.945085	-0.158979	-0.215705
C45	C	0.972390	-0.131633	0.259480
C46	C	0.968265	-0.135759	0.346668
C47	C	0.916352	-0.187642	0.390262
C48	C	0.868556	-0.235395	0.346663
C49	C	0.872678	-0.231265	0.259476
C50	C	0.901410	-0.202602	0.653510
C51	C	0.897294	-0.206731	0.740702
C52	C	0.997003	-0.107093	0.740702
C53	C	1.001123	-0.102971	0.653513
C54	C	0.953324	-0.150721	0.609922
C55	C	0.912136	-0.191862	0.479383
C56	C	0.957536	-0.146496	0.520803
H57	H	0.330070	-0.064854	0.000117
O58	O	0.762168	0.218960	0.000071
H59	H	0.768695	0.283649	0.000083
H60	H	1.075312	0.601075	0.000101
O61	O	0.841297	-0.262686	0.787731
H62	H	0.780202	-0.247767	0.771020
O63	O	1.019810	-0.084259	0.393693
H64	H	1.058286	-0.121767	0.433411
H65	H	1.043394	-0.060724	0.618021
H66	H	1.035918	-0.068216	0.776202
O67	O	0.546695	0.003487	0.000103
H68	H	0.482005	-0.003041	0.000099
H69	H	0.164579	-0.309658	0.000092
H70	H	0.442811	-0.261782	0.000091
H71	H	0.869870	-0.234107	0.514884
H72	H	0.842238	0.338796	0.000072
H73	H	0.830508	0.435584	0.000059
H74	H	0.688381	-0.286045	0.000056
O75	O	0.798322	0.593992	0.000050
H76	H	0.752568	0.548502	0.000030
H77	H	0.181294	-0.052321	0.000118
O78	O	0.776534	0.048495	0.000077
H79	H	0.723656	0.087583	0.000079
H80	H	1.027437	0.322844	0.000074
H81	H	0.705095	-0.028706	0.000086
O82	O	0.322986	-0.341854	0.000097
H83	H	0.307703	-0.371874	-0.056352
O84	O	0.849866	-0.254110	0.606497
H85	H	0.813085	-0.290886	0.651461
O86	O	0.417243	-0.056922	0.000104
H87	H	0.382772	-0.047713	-0.056349
O88	O	0.812566	-0.291360	0.393676
H89	H	0.817735	-0.286218	0.461626
O90	O	1.013515	-0.090534	0.473778
H91	H	1.074614	-0.105431	0.490492
H92	H	0.833760	-0.270148	0.223984
O93	O	0.527541	-0.291337	0.000072
H94	H	0.566632	-0.344213	0.000055
O95	O	1.071354	0.067645	0.000108
H96	H	1.117105	0.113142	0.000102
H97	H	1.087848	0.452287	0.000107
H98	H	1.039165	0.226050	0.000104
O99	O	1.028378	-0.075671	0.212462
H100	H	1.060910	-0.043153	0.257426
