data_functionalizedCrystal
_audit_creation_method	'MofGen! by Chris Wilmer'
_symmetry_space_group_name_H-M	'P1'
_symmetry_Int_Tables_number	1
_symmetry_cell_setting	triclinic
loop_
_symmetry_equiv_pos_as_xyz
  x,y,z
_cell_length_a	23.532361
_cell_length_b	23.532407
_cell_length_c	13.596369
_cell_angle_alpha	89.989360
_cell_angle_beta	89.998948
_cell_angle_gamma	82.839173
loop_
_atom_site_label
_atom_site_type_symbol
_atom_site_fract_x
_atom_site_fract_y
_atom_site_fract_z
O1	O	0.755277	0.069009	-0.081703
O2	O	0.589410	0.079040	-0.081728
O3	O	0.677345	-0.008908	-0.081696
O4	O	0.667342	0.156957	-0.081734
O5	O	0.677337	-0.008912	0.081887
O6	O	0.589401	0.079036	0.081855
O7	O	0.755269	0.069005	0.081880
Zn8	Zn	0.672334	0.074020	0.107840
Zn9	Zn	0.672345	0.074026	-0.107687
O10	O	0.667333	0.156953	0.081849
C11	C	0.568189	0.078787	0.000061
C12	C	0.504971	0.078032	0.000052
C13	C	0.231732	0.074731	-0.089110
C14	C	0.291132	0.075446	-0.089113
O15	O	0.321861	0.075798	-0.164946
N16	N	0.320832	0.075804	0.000056
C17	C	0.291131	0.075442	0.089234
O18	O	0.321849	0.075812	0.165079
C19	C	0.231733	0.074723	0.089236
C20	C	0.202035	0.074370	0.000061
C21	C	0.202033	0.074377	-0.178278
C22	C	0.142637	0.073663	-0.178275
C23	C	0.112940	0.073303	-0.089104
C24	C	0.142639	0.073657	0.000064
C25	C	0.202034	0.074357	0.178412
C26	C	0.142632	0.073637	0.178406
C27	C	0.112933	0.073285	0.089231
C28	C	0.053546	0.072582	0.089237
N29	N	0.023845	0.072224	0.000068
C30	C	0.053542	0.072584	-0.089103
C31	C	0.415872	0.076951	0.089224
C32	C	0.475268	0.077674	0.089224
C33	C	0.475264	0.077677	-0.089124
C34	C	0.415866	0.076958	-0.089122
C35	C	0.386171	0.076593	0.000055
C36	C	-0.071193	0.071086	-0.089090
C37	C	-0.130595	0.070374	-0.089079
C38	C	-0.130585	0.070369	0.089268
C39	C	-0.071190	0.071083	0.089258
C40	C	-0.041495	0.071440	0.000071
O41	O	0.022779	0.072227	0.165032
O42	O	0.022819	0.072206	-0.164935
C43	C	0.677086	-0.030126	0.000098
C44	C	0.676320	-0.093343	0.000105
C45	C	0.723555	-0.492454	0.000058
C46	C	0.722844	-0.551854	0.000051
O47	O	0.766630	-0.588606	0.000021
N48	N	0.670566	-0.574471	0.000043
C49	C	0.618997	-0.537685	0.000034
O50	O	0.574465	-0.562377	0.000026
C51	C	0.619709	-0.478286	0.000034
C52	C	0.671990	-0.455672	0.000052
C53	C	0.775832	-0.469839	0.000074
C54	C	0.776543	-0.410443	0.000084
C55	C	0.724977	-0.373662	0.000077
C56	C	0.672701	-0.396276	0.000061
C57	C	0.568140	-0.441501	0.000018
C58	C	0.568857	-0.382099	0.000018
C59	C	0.621137	-0.359485	0.000035
C60	C	0.621847	-0.300099	0.000064
N61	N	0.674124	-0.277481	0.000071
C62	C	0.725690	-0.314263	0.000078
C63	C	0.617505	-0.662427	0.000031
C64	C	0.616793	-0.721825	0.000038
C65	C	0.720640	-0.735990	0.000052
C66	C	0.721352	-0.676591	0.000053
C67	C	0.669783	-0.639810	0.000038
C68	C	0.727179	-0.189526	0.000098
C69	C	0.727886	-0.130124	0.000112
C70	C	0.624039	-0.115965	0.000092
C71	C	0.623332	-0.175361	0.000083
C72	C	0.674907	-0.212141	0.000083
O73	O	0.578083	-0.263312	0.000089
O74	O	0.770214	-0.289562	0.000072
C75	C	0.776489	0.069258	0.000090
C76	C	0.839708	0.070014	0.000092
C77	C	0.667592	0.178171	0.000053
C78	C	0.668358	0.241388	0.000039
N79	N	0.672330	0.074015	0.254932
N80	N	0.672353	0.074026	-0.254779
C81	C	0.672344	0.074026	0.656223
C82	C	0.672339	0.074025	0.544571
C83	C	0.672337	0.074021	0.455581
C84	C	0.672331	0.074019	0.343922
H85	H	0.499442	0.077971	0.161839
C86	C	0.778861	-0.651719	0.000063
C87	C	0.793640	-0.612827	-0.084881
C88	C	0.851152	-0.587959	-0.084874
C89	C	0.893885	-0.601983	0.000077
C90	C	0.879107	-0.640877	0.085027
C91	C	0.821595	-0.665745	0.085020
H92	H	0.762006	-0.602443	-0.147772
H93	H	0.862092	-0.559167	-0.147760
H94	H	0.936459	-0.583574	0.000082
H95	H	0.910742	-0.651260	0.147918
H96	H	0.810656	-0.694537	0.147906
C97	C	0.567320	-0.075497	0.000080
C98	C	0.553546	-0.032704	-0.084870
C99	C	0.496827	0.007766	-0.084890
C100	C	0.453882	0.005444	0.000039
C101	C	0.467655	-0.037351	0.084994
C102	C	0.524374	-0.077821	0.085015
H103	H	0.585337	-0.030983	-0.147745
H104	H	0.486631	0.039446	-0.147781
H105	H	0.411895	0.035402	0.000023
H106	H	0.435863	-0.039072	0.147869
H107	H	0.534569	-0.109500	0.147905
H108	H	0.391696	0.076661	0.161847
C109	C	0.383201	0.076564	-0.187216
C110	C	0.335613	0.125530	-0.211763
C111	C	0.302952	0.125135	-0.309861
C112	C	0.317880	0.075774	-0.383412
C113	C	0.365470	0.026805	-0.358867
C114	C	0.398131	0.027200	-0.260769
H115	H	0.324561	0.162073	-0.157314
H116	H	0.267723	0.161385	-0.328030
H117	H	0.293702	0.075482	-0.456030
H118	H	0.376522	-0.009738	-0.413315
H119	H	0.433361	-0.009051	-0.242599
C120	C	0.783911	-0.229978	0.000105
C121	C	0.797700	-0.272772	0.085049
C122	C	0.854431	-0.313224	0.085064
C123	C	0.897373	-0.310883	0.000135
C124	C	0.883584	-0.268087	-0.084815
C125	C	0.826854	-0.227635	-0.084830
H126	H	0.765911	-0.274507	0.147924
H127	H	0.864638	-0.344904	0.147951
H128	H	0.939368	-0.340828	0.000146
H129	H	0.915373	-0.266353	-0.147690
H130	H	0.816647	-0.195956	-0.147716
C131	C	0.565822	-0.200236	0.000060
C132	C	0.551059	-0.239102	-0.084907
C133	C	0.493547	-0.263969	-0.084947
C134	C	0.450797	-0.249972	-0.000019
C135	C	0.465559	-0.211105	0.084955
C136	C	0.523071	-0.186237	0.084995
H137	H	0.582706	-0.249465	-0.147782
H138	H	0.482620	-0.292742	-0.147851
H139	H	0.408223	-0.268381	-0.000048
H140	H	0.433912	-0.200741	0.147830
H141	H	0.533998	-0.157465	0.147898
C142	C	-0.038529	0.071482	0.187358
C143	C	0.009052	0.022513	0.211924
C144	C	0.041704	0.022909	0.310031
C145	C	0.026774	0.072274	0.383573
C146	C	-0.020809	0.121247	0.359009
C147	C	-0.053461	0.120851	0.260902
H148	H	0.020106	-0.014033	0.157482
H149	H	0.076928	-0.013344	0.328214
H150	H	0.050945	0.072567	0.456198
H151	H	-0.031863	0.157793	0.413451
H152	H	-0.088685	0.157104	0.242719
C153	C	0.777364	-0.776456	0.000051
C154	C	0.791149	-0.819254	0.084990
C155	C	0.847870	-0.859722	0.084990
C156	C	0.890806	-0.857391	0.000051
C157	C	0.877023	-0.814591	-0.084895
C158	C	0.820302	-0.774124	-0.084894
H159	H	0.759363	-0.820981	0.147873
H160	H	0.858073	-0.891405	0.147873
H161	H	0.932795	-0.887347	0.000051
H162	H	0.908809	-0.812865	-0.147777
H163	H	0.810099	-0.742441	-0.147777
C164	C	-0.163261	0.069972	0.187351
C165	C	-0.161855	0.119527	0.260912
C166	C	-0.194532	0.119126	0.358995
C167	C	-0.228617	0.069170	0.383517
C168	C	-0.230024	0.019612	0.309953
C169	C	-0.197347	0.020013	0.211870
H170	H	-0.136622	0.156510	0.242762
H171	H	-0.193490	0.155813	0.413452
H172	H	-0.252806	0.068874	0.456123
H173	H	-0.255257	-0.017372	0.328104
H174	H	-0.198389	-0.016674	0.157414
H175	H	0.574220	-0.740232	0.000041
H176	H	-0.154773	0.070088	-0.161699
C177	C	0.560774	-0.621970	0.000033
C178	C	0.517842	-0.624289	-0.084912
C179	C	0.461112	-0.583837	-0.084911
C180	C	0.447314	-0.541065	0.000035
C181	C	0.490247	-0.538744	0.084986
C182	C	0.546977	-0.579197	0.084985
H183	H	0.528055	-0.655953	-0.147800
H184	H	0.429330	-0.585555	-0.147798
H185	H	0.405318	-0.511119	0.000035
H186	H	0.480034	-0.507080	0.147874
H187	H	0.578759	-0.577479	0.147872
H188	H	-0.047023	0.071377	-0.161714
H189	H	0.499455	0.077970	-0.161732
H190	H	0.118462	0.073374	-0.250891
H191	H	0.525567	-0.459902	-0.000002
H192	H	0.770461	-0.111716	0.000128
H193	H	0.226207	0.074669	-0.250896
H194	H	0.226205	0.074642	0.251029
H195	H	0.526862	-0.352154	0.000004
H196	H	0.118456	0.073345	0.251027
H197	H	0.819115	-0.392037	0.000094
H198	H	0.817825	-0.499782	0.000076
