data_functionalizedCrystal
_audit_creation_method	'MofGen! by Chris Wilmer'
_symmetry_space_group_name_H-M	'P1'
_symmetry_Int_Tables_number	1
_symmetry_cell_setting	triclinic
loop_
_symmetry_equiv_pos_as_xyz
  x,y,z
_cell_length_a	14.971491
_cell_length_b	16.974959
_cell_length_c	14.048226
_cell_angle_alpha	93.644018
_cell_angle_beta	89.991693
_cell_angle_gamma	83.509971
loop_
_atom_site_label
_atom_site_type_symbol
_atom_site_fract_x
_atom_site_fract_y
_atom_site_fract_z
O1	O	1.186701	0.103059	-0.071273
O2	O	0.926272	0.115394	-0.070317
O3	O	1.063738	-0.005866	-0.079643
O4	O	1.049235	0.224319	-0.061946
O5	O	1.063721	-0.005874	0.078678
O6	O	0.926255	0.115387	0.088004
O7	O	1.186684	0.103052	0.087048
Zn8	Zn	1.056467	0.109218	0.112663
Zn9	Zn	1.056489	0.109227	-0.095931
O10	O	1.049218	0.224312	0.096375
C11	C	0.892940	0.114838	0.008802
C12	C	0.793647	0.113183	0.008678
C13	C	1.063175	-0.035328	-0.002749
C14	C	1.061512	-0.123104	-0.009504
C15	C	0.365968	0.106044	-0.078194
C16	C	0.459264	0.107597	-0.078071
C17	C	0.505899	0.108374	0.008293
C18	C	0.459234	0.107591	0.094539
C19	C	0.365940	0.106033	0.094415
C20	C	0.653688	0.110842	0.094792
C21	C	0.746988	0.112402	0.094917
C22	C	0.747012	0.112406	-0.077693
C23	C	0.653718	0.110847	-0.077818
C24	C	0.607059	0.110065	0.008429
C25	C	1.052231	-0.617194	-0.056891
C26	C	1.053785	-0.534719	-0.050525
C27	C	1.054546	-0.493501	0.038959
C28	C	1.053762	-0.534764	0.122082
C29	C	1.052214	-0.617238	0.115716
C30	C	1.059180	-0.246841	0.067253
C31	C	1.060725	-0.164360	0.073614
C32	C	1.060750	-0.164321	-0.098994
C33	C	1.059196	-0.246797	-0.105353
C34	C	1.058417	-0.288053	-0.022230
N35	N	1.056132	-0.409197	0.045467
N36	N	1.056838	-0.372356	-0.028739
C37	C	1.220016	0.103608	0.007927
C38	C	1.319309	0.105263	0.008045
C39	C	1.049781	0.253773	0.019479
C40	C	1.051444	0.341549	0.026227
N41	N	1.056459	0.109211	0.255023
N42	N	1.056504	0.109228	-0.238292
C43	C	1.117348	0.055539	0.300713
C44	C	1.117354	0.055539	0.400371
C45	C	1.056474	0.109215	0.454337
C46	C	0.995579	0.162889	0.408640
C47	C	0.995569	0.162885	0.308984
C48	C	0.995605	0.162895	0.616355
C49	C	0.995615	0.162900	0.716018
C50	C	1.117389	0.055549	0.707742
C51	C	1.117380	0.055545	0.608085
C52	C	1.056485	0.109220	0.562396
H53	H	0.497251	0.108228	-0.148297
C54	C	1.052334	-0.608996	0.286969
C55	C	1.051344	-0.662590	0.207081
H56	H	1.051794	-0.636996	0.343374
H57	H	1.105069	-0.582800	0.285405
H58	H	1.000800	-0.570854	0.286313
H59	H	1.102882	-0.700729	0.207733
H60	H	0.998604	-0.688799	0.208645
H61	H	1.051603	-0.650747	-0.129758
H62	H	1.054388	-0.501198	0.194942
C63	C	1.059297	-0.238581	0.238505
C64	C	1.058311	-0.292181	0.158622
H65	H	1.058754	-0.266576	0.294914
H66	H	1.112032	-0.212386	0.236941
H67	H	1.007764	-0.200439	0.237842
H68	H	1.109848	-0.330320	0.159281
H69	H	1.005571	-0.318390	0.160187
C70	C	1.237709	-0.050578	0.302552
C71	C	1.184268	-0.003465	0.241398
H72	H	1.279017	-0.087010	0.265933
H73	H	1.269844	-0.017616	0.343939
H74	H	1.200505	-0.079069	0.339248
H75	H	1.221471	0.025030	0.204707
H76	H	1.152130	-0.036431	0.199995
H77	H	0.784955	0.113039	0.165243
H78	H	0.615750	0.110219	-0.148143
C79	C	0.663029	0.111003	0.265428
C80	C	0.602398	0.109986	0.189596
H81	H	0.631361	0.110483	0.323954
H82	H	0.706290	0.065541	0.258351
H83	H	0.692545	0.157686	0.265417
H84	H	0.572887	0.063300	0.189604
H85	H	0.559121	0.155452	0.196675
C86	C	0.985649	-0.062748	-0.191297
C87	C	1.061610	-0.118973	-0.190361
H88	H	0.986185	-0.034750	-0.247704
H89	H	0.932921	-0.088954	-0.189735
H90	H	0.986333	-0.026399	-0.137091
H91	H	1.060922	-0.155326	-0.244563
H92	H	1.114351	-0.092765	-0.191931
C93	C	1.136925	-0.052046	0.504165
C94	C	1.184291	-0.003459	0.450586
H95	H	1.178254	-0.088474	0.535158
H96	H	1.100679	-0.020085	0.550568
H97	H	1.099730	-0.080542	0.463101
H98	H	1.221482	0.025042	0.491652
H99	H	1.220553	-0.035424	0.404178
C100	C	1.237772	-0.050557	0.689546
C101	C	1.184330	-0.003451	0.757959
H102	H	1.279103	-0.086972	0.720554
H103	H	1.200578	-0.079060	0.648504
H104	H	1.269890	-0.017583	0.653196
H105	H	1.152207	-0.036425	0.794305
H106	H	1.221529	0.025054	0.799018
H107	H	1.166956	0.011842	0.564146
C108	C	1.053637	-0.542963	-0.221777
C109	C	1.054643	-0.489369	-0.141891
H110	H	1.054162	-0.514964	-0.278183
H111	H	1.105163	-0.581102	-0.221132
H112	H	1.000895	-0.569160	-0.220199
H113	H	1.107389	-0.463176	-0.143465
H114	H	1.003112	-0.451216	-0.142536
C115	C	0.222914	0.103635	0.170865
C116	C	0.314647	0.105173	0.189211
H117	H	0.191252	0.103097	0.229391
H118	H	0.200758	0.149450	0.138933
H119	H	0.214519	0.057306	0.131840
H120	H	0.323043	0.151506	0.228231
H121	H	0.336810	0.059353	0.221157
C122	C	0.841810	0.182070	-0.172478
C123	C	0.798296	0.113261	-0.172499
H124	H	0.873475	0.182596	-0.231003
H125	H	0.798541	0.227526	-0.165399
H126	H	0.882935	0.182743	-0.121023
H127	H	0.757166	0.112590	-0.223950
H128	H	0.841569	0.067792	-0.179589
H129	H	0.945986	0.206589	0.271784
C130	C	1.059474	-0.238482	-0.275330
C131	C	1.058425	-0.292109	-0.203717
H132	H	1.059018	-0.266460	-0.336056
H133	H	1.007928	-0.200363	-0.268844
H134	H	1.112197	-0.212264	-0.269666
H135	H	1.005698	-0.318323	-0.209377
H136	H	1.109976	-0.330242	-0.210207
H137	H	0.946015	0.206601	0.579158
C138	C	0.873853	0.179868	0.522058
C139	C	0.928660	0.221889	0.467962
H140	H	0.832545	0.216296	0.558684
H141	H	0.841716	0.146914	0.480662
H142	H	0.910130	0.147906	0.563527
H143	H	0.892383	0.253847	0.426488
H144	H	0.960799	0.254857	0.509362
H145	H	0.328003	0.105416	-0.148522
H146	H	0.497212	0.108219	0.164858
C147	C	0.985584	-0.062825	0.181560
C148	C	1.061556	-0.119039	0.171975
H149	H	0.986092	-0.034846	0.242281
H150	H	0.986278	-0.026465	0.132961
H151	H	0.932858	-0.089043	0.175954
H152	H	1.114282	-0.092820	0.177574
H153	H	1.060869	-0.155403	0.220587
H154	H	0.946040	0.206607	0.759953
