data_functionalizedCrystal
_audit_creation_method	'MofGen! by Chris Wilmer'
_symmetry_space_group_name_H-M	'P1'
_symmetry_Int_Tables_number	1
_symmetry_cell_setting	triclinic
loop_
_symmetry_equiv_pos_as_xyz
  x,y,z
_cell_length_a	11.169417
_cell_length_b	19.121063
_cell_length_c	11.169409
_cell_angle_alpha	92.400753
_cell_angle_beta	89.980176
_cell_angle_gamma	92.469728
loop_
_atom_site_label
_atom_site_type_symbol
_atom_site_fract_x
_atom_site_fract_y
_atom_site_fract_z
Zn1	Zn	1.814442	-0.279539	-0.698851
Zn2	Zn	1.805707	-0.397012	-0.506702
Zn3	Zn	1.613724	-0.279582	-0.498188
Zn4	Zn	1.605116	-0.396955	-0.707343
O5	O	1.709747	-0.338272	-0.602771
O6	O	1.981232	-0.295128	-0.673371
O7	O	1.780188	-0.381477	-0.337626
O8	O	1.647608	-0.181292	-0.517690
O9	O	1.974815	-0.381435	-0.532200
O10	O	1.795074	-0.181261	-0.665116
O11	O	1.639139	-0.295201	-0.331371
O12	O	1.444633	-0.295146	-0.525924
O13	O	1.632936	-0.381338	-0.874163
O14	O	1.438308	-0.381379	-0.679589
O15	O	1.786727	-0.295073	-0.867924
O16	O	1.771840	-0.495289	-0.540435
O17	O	1.624466	-0.495247	-0.687844
C18	C	1.397923	-0.338261	-0.602755
C19	C	1.264522	-0.338274	-0.602778
C20	C	1.696304	-0.520752	-0.616011
C21	C	1.690663	-0.598817	-0.621715
C22	C	1.764802	-0.635491	-0.547710
C23	C	1.759503	-0.708842	-0.553082
C24	C	1.680059	-0.745518	-0.632454
C25	C	1.605917	-0.708838	-0.706467
C26	C	1.611222	-0.635489	-0.701100
C27	C	1.660204	-0.966986	-0.652499
C28	C	1.654902	-1.040340	-0.657858
C29	C	1.808490	-1.040339	-0.504474
C30	C	1.813784	-0.966988	-0.499110
C31	C	1.739646	-0.930315	-0.573127
C32	C	1.674638	-0.820494	-0.637944
C33	C	1.745073	-0.855340	-0.567642
C34	C	2.022789	-0.338283	-0.602788
C35	C	2.156188	-0.338288	-0.602795
C36	C	1.709845	-0.338194	-0.915808
C37	C	1.709887	-0.338161	-1.049206
C38	C	1.723276	-0.155080	-0.589506
C39	C	1.729041	-0.077014	-0.583853
C40	C	1.709722	-0.338299	-0.290948
C41	C	1.709928	-0.338134	-0.157537
H42	H	1.819874	-0.738699	-0.492818
O43	O	1.588225	-0.931449	-0.724557
C44	C	1.613108	-0.949290	-0.845506
H45	H	1.655407	-1.002519	-0.851927
H46	H	1.526272	-0.951825	-0.899419
H47	H	1.677764	-0.907954	-0.882974
H48	H	1.829489	-0.605635	-0.483072
H49	H	1.878474	-0.937128	-0.434479
O50	O	1.528906	-0.744541	-0.783633
C51	C	1.594133	-0.786886	-0.864325
H52	H	1.684315	-0.797851	-0.822877
H53	H	1.541506	-0.838481	-0.884138
H54	H	1.609322	-0.758568	-0.951208
H55	H	1.609952	-0.850363	-0.702566
H56	H	1.809762	-0.825477	-0.503022
O57	O	1.539259	-0.599937	-0.773161
C58	C	1.564165	-0.617776	-0.894106
H59	H	1.606443	-0.671011	-0.900523
H60	H	1.477341	-0.620296	-0.948039
H61	H	1.628847	-0.576446	-0.931554
O62	O	1.880644	-1.075992	-0.432764
C63	C	1.955041	-1.118357	-0.504268
H64	H	1.963991	-1.096202	-0.597181
H65	H	2.047374	-1.119159	-0.461010
H66	H	1.913919	-1.173966	-0.512431
O67	O	1.577890	-1.076048	-0.735030
C68	C	1.643126	-1.118395	-0.815710
H69	H	1.733308	-1.129354	-0.774254
H70	H	1.590506	-1.169993	-0.835516
H71	H	1.658317	-1.090083	-0.902598
