data_functionalizedCrystal
_audit_creation_method	'MofGen! by Chris Wilmer'
_symmetry_space_group_name_H-M	'P1'
_symmetry_Int_Tables_number	1
_symmetry_cell_setting	triclinic
loop_
_symmetry_equiv_pos_as_xyz
  x,y,z
_cell_length_a	14.044191
_cell_length_b	10.654550
_cell_length_c	9.130313
_cell_angle_alpha	89.999737
_cell_angle_beta	89.998938
_cell_angle_gamma	88.838353
loop_
_atom_site_label
_atom_site_type_symbol
_atom_site_fract_x
_atom_site_fract_y
_atom_site_fract_z
O1	O	1.259699	0.303028	-0.121702
O2	O	0.983658	0.292085	-0.121722
O3	O	1.128025	0.115455	-0.121717
O4	O	1.115332	0.479658	-0.121706
O5	O	1.128015	0.115449	0.121881
O6	O	0.983648	0.292079	0.121877
O7	O	1.259689	0.303021	0.121897
Cu8	Cu	1.121668	0.297549	0.144130
Cu9	Cu	1.121679	0.297557	-0.143954
O10	O	1.115322	0.479651	0.121893
C11	C	0.948307	0.287295	0.000075
C12	C	0.842987	0.273016	0.000067
C13	C	0.593195	0.348181	0.000084
C14	C	0.650158	0.246931	0.000078
C15	C	0.757458	0.261448	0.000072
C16	C	0.485885	0.333666	0.000090
C17	C	1.127088	0.068560	0.000077
C18	C	1.124300	-0.071163	0.000063
C19	C	1.295040	0.307812	0.000097
C20	C	1.400360	0.322091	0.000095
N21	N	1.121666	0.297544	0.346752
C22	C	1.116259	0.526546	0.000095
C23	C	1.119047	0.666270	0.000099
C24	C	1.034046	0.737211	0.000090
C25	C	1.036672	0.868496	0.000066
C26	C	1.209307	0.857886	0.000068
C27	C	1.206681	0.726604	0.000081
N28	N	1.121688	0.297554	-0.346577
C29	C	1.185614	0.219370	0.423406
C30	C	1.185623	0.219371	0.576743
C31	C	1.057734	0.375731	0.576759
C32	C	1.057721	0.375722	0.423425
H33	H	0.618341	0.149345	-0.000028
H34	H	0.962689	0.688091	0.000109
C35	C	0.636169	0.480008	0.000058
C36	C	0.745041	0.494526	0.000032
C37	C	0.788029	0.626351	-0.000007
C38	C	0.722146	0.743658	-0.000020
C39	C	0.613268	0.729145	0.000006
C40	C	0.570280	0.597319	0.000045
H41	H	0.793817	0.407685	0.000041
H42	H	0.868628	0.637094	-0.000026
H43	H	0.753968	0.841243	-0.000049
H44	H	0.564491	0.815986	-0.000004
H45	H	0.489681	0.586576	0.000064
H46	H	0.967455	0.926250	0.000056
C47	C	1.300189	0.648559	0.000092
C48	C	1.371759	0.662233	0.126587
C49	C	1.465263	0.584188	0.126591
C50	C	1.487196	0.492471	0.000101
C51	C	1.415624	0.478794	-0.126403
C52	C	1.322120	0.556838	-0.126407
H53	H	1.355525	0.730131	0.220231
H54	H	1.518245	0.594313	0.220238
H55	H	1.556412	0.434698	0.000104
H56	H	1.431858	0.410896	-0.220047
H57	H	1.269138	0.546713	-0.220054
H58	H	1.280656	0.907027	0.000068
H59	H	1.237681	0.155711	0.360983
C60	C	1.255969	0.133383	0.661064
C61	C	1.326319	0.047415	0.576723
C62	C	1.396667	-0.038578	0.661045
C63	C	1.396665	-0.038603	0.829706
C64	C	1.326313	0.047368	0.914056
C65	C	1.255965	0.133362	0.829735
H66	H	1.326322	0.047430	0.451862
H67	H	1.448746	-0.102220	0.598602
H68	H	1.448741	-0.102261	0.892126
H69	H	1.326310	0.047353	1.038917
H70	H	1.203886	0.197004	0.892177
C71	C	0.987375	0.461719	0.339092
C72	C	0.917078	0.547772	0.423419
C73	C	0.846733	0.633760	0.339085
C74	C	0.846685	0.633696	0.170423
C75	C	0.916985	0.547640	0.086087
C76	C	0.987329	0.461652	0.170421
H77	H	0.917111	0.547823	0.548281
H78	H	0.794692	0.697465	0.401517
H79	H	0.794611	0.697349	0.107994
H80	H	0.916952	0.547589	-0.038775
H81	H	1.039370	0.397947	0.107989
H82	H	1.005672	0.439383	0.639201
