data_functionalizedCrystal
_audit_creation_method	'MofGen! by Chris Wilmer'
_symmetry_space_group_name_H-M	'P1'
_symmetry_Int_Tables_number	1
_symmetry_cell_setting	triclinic
loop_
_symmetry_equiv_pos_as_xyz
  x,y,z
_cell_length_a	6.817900
_cell_length_b	12.200722
_cell_length_c	18.218323
_cell_angle_alpha	98.287598
_cell_angle_beta	91.548247
_cell_angle_gamma	107.140920
loop_
_atom_site_label
_atom_site_type_symbol
_atom_site_fract_x
_atom_site_fract_y
_atom_site_fract_z
V1	V	-3.915975	-0.161399	-0.229288
O2	O	-3.886596	0.004993	-0.224843
O3	O	-3.886525	-0.317369	-0.227797
O4	O	-3.810919	-0.160128	-0.329253
O5	O	-3.962725	-0.153336	-0.122685
V6	V	-4.404489	-0.141353	-0.216528
O7	O	-4.166286	-0.205370	-0.257278
O8	O	-4.604376	-0.097381	-0.188538
O9	O	-4.210733	0.014618	-0.218019
O10	O	-4.551265	-0.307745	-0.220973
O11	O	-4.475136	-0.149415	-0.323132
O12	O	-4.286338	-0.142623	-0.116563
C13	C	-3.737969	-0.355354	-0.224200
C14	C	-3.794799	-0.482870	-0.223647
C15	C	-3.636977	-0.154791	-0.436876
C16	C	-3.641527	-0.154787	-0.353616
V17	V	-3.897206	-0.161425	-0.571938
O18	O	-3.932280	-0.153371	-0.678506
O19	O	-3.803308	-0.160147	-0.468201
O20	O	-3.866065	-0.317395	-0.601181
O21	O	-3.869089	0.004966	-0.544605
V22	V	-4.383581	-0.141389	-0.598323
O23	O	-4.149649	-0.205399	-0.561012
O24	O	-4.580463	-0.097422	-0.625239
O25	O	-4.254705	-0.142664	-0.694132
O26	O	-4.465677	-0.149445	-0.495924
O27	O	-4.528868	-0.307782	-0.629825
O28	O	-4.191948	0.014585	-0.561152
C29	C	-3.840949	-0.586425	-0.223192
C30	C	-3.898863	-0.716341	-0.222624
C31	C	-4.022633	0.052596	-0.221614
C32	C	-3.945038	0.180111	-0.222172
C33	C	-4.119077	-0.147980	-0.092196
C34	C	-4.102801	-0.147981	-0.010473
C35	C	-3.717014	-0.355371	-0.606506
C36	C	-3.772376	-0.482886	-0.632628
C37	C	-4.085043	-0.148015	-0.713496
C38	C	-4.059850	-0.148026	-0.794483
C39	C	-4.073059	-0.148008	0.139151
C40	C	-4.089617	-0.147992	0.055890
C41	C	-4.004991	0.052573	-0.543867
C42	C	-3.928908	0.180090	-0.517014
C43	C	-3.979108	-0.548662	-0.648742
C44	C	-4.031153	-0.668474	-0.673298
C45	C	-3.876465	-0.722510	-0.681734
C46	C	-3.669716	-0.656725	-0.665620
C47	C	-3.617672	-0.536914	-0.641070
C48	C	-3.719848	0.234103	-0.495649
C49	C	-3.648327	0.353921	-0.470426
C50	C	-3.785873	0.419723	-0.466564
C51	C	-3.994950	0.365702	-0.487933
C52	C	-4.066465	0.245888	-0.513160
H53	H	-4.105091	-0.504683	-0.641874
H54	H	-3.727615	0.517282	-0.446019
O55	O	-3.586066	0.170293	-0.499274
C56	C	-3.492426	0.179671	-0.427743
H57	H	-3.499550	0.262899	-0.391898
H58	H	-3.577155	0.101635	-0.401112
C59	C	-3.257311	0.080677	-0.478028
C60	C	-3.266045	0.182905	-0.434004
H61	H	-3.117671	0.082667	-0.481889
H62	H	-3.320401	0.074355	-0.526219
H63	H	-3.327930	0.015658	-0.455829
H64	H	-3.195450	0.247920	-0.456207
H65	H	-3.202937	0.189238	-0.385816
O66	O	-4.232045	-0.732347	-0.688806
C67	C	-4.340053	-0.722934	-0.624447
H68	H	-4.227541	-0.697977	-0.573040
H69	H	-4.420065	-0.653352	-0.626302
C70	C	-4.640127	-0.871012	-0.684220
C71	C	-4.501939	-0.840369	-0.621080
H72	H	-4.739993	-0.943448	-0.682144
H73	H	-4.567364	-0.877350	-0.727581
H74	H	-4.706782	-0.813018	-0.685759
H75	H	-4.435269	-0.898355	-0.619547
H76	H	-4.574695	-0.834043	-0.577719
H77	H	-4.106923	0.419296	-0.484785
H78	H	-3.478082	0.397887	-0.453028
H79	H	-4.236704	0.201919	-0.530551
H80	H	-3.918870	-0.820069	-0.701725
H81	H	-3.449330	-0.483369	-0.627948
H82	H	-3.543782	-0.700739	-0.672493
