data_functionalizedCrystal
_audit_creation_method	'MofGen! by Chris Wilmer'
_symmetry_space_group_name_H-M	'P1'
_symmetry_Int_Tables_number	1
_symmetry_cell_setting	triclinic
loop_
_symmetry_equiv_pos_as_xyz
  x,y,z
_cell_length_a	6.817900
_cell_length_b	14.858565
_cell_length_c	11.102193
_cell_angle_alpha	93.468775
_cell_angle_beta	71.395941
_cell_angle_gamma	75.476084
loop_
_atom_site_label
_atom_site_type_symbol
_atom_site_fract_x
_atom_site_fract_y
_atom_site_fract_z
V1	V	-4.090665	0.128677	0.396612
O2	O	-4.071548	-0.006177	0.388697
O3	O	-4.046951	0.255138	0.394250
O4	O	-4.067759	0.126700	0.569428
O5	O	-4.050596	0.123150	0.212307
V6	V	-4.570382	0.112546	0.374525
O7	O	-4.360272	0.164060	0.445061
O8	O	-4.750973	0.077163	0.326075
O9	O	-4.390889	-0.013915	0.376887
O10	O	-4.706895	0.247400	0.382439
O11	O	-4.727848	0.118073	0.558830
O12	O	-4.370081	0.114523	0.201709
C13	C	-3.892267	0.285966	0.388084
C14	C	-3.937983	0.389349	0.387305
C15	C	-3.918809	0.122130	0.611539
C16	C	-3.981395	0.121351	0.752819
C17	C	-4.208915	-0.044738	0.383049
C18	C	-4.142439	-0.148121	0.383837
C19	C	-4.105310	0.767920	0.384469
C20	C	-4.058746	0.662590	0.385258
C21	C	-4.021647	0.578638	0.385886
C22	C	-3.975082	0.473301	0.386676
C23	C	-4.182373	0.119096	0.159591
C24	C	-4.099024	0.119870	0.018309
C25	C	-4.074124	0.291686	0.789616
C26	C	-4.149884	0.376484	0.874385
C27	C	-4.208690	0.375747	1.007129
C28	C	-4.191738	0.290203	1.055105
C29	C	-4.115978	0.205405	0.970335
C30	C	-4.057170	0.206151	0.837590
C31	C	-4.023265	0.035072	0.933540
C32	C	-3.964444	0.035807	0.800795
C33	C	-4.006313	-0.050472	0.981515
C34	C	-3.930538	-0.135272	0.896745
C35	C	-3.871729	-0.134531	0.763994
C36	C	-3.888684	-0.048990	0.716026
H37	H	-4.026215	0.292294	0.681529
O38	O	-3.797843	-0.216851	0.681515
C39	C	-3.586906	-0.225957	0.597491
H40	H	-3.560279	-0.153376	0.591519
H41	H	-3.464774	-0.271368	0.635261
C42	C	-3.590142	-0.361751	0.470087
C43	C	-3.557445	-0.272605	0.462744
H44	H	-3.571962	-0.390529	0.386971
H45	H	-3.732251	-0.355619	0.526698
H46	H	-3.488361	-0.399582	0.501568
H47	H	-3.659242	-0.234773	0.431280
H48	H	-3.415351	-0.278732	0.406125
H49	H	-4.054215	-0.051066	1.089604
O50	O	-4.248881	0.289652	1.184085
C51	C	-4.319453	0.382840	1.248619
H52	H	-4.248163	0.429882	1.180291
H53	H	-4.503237	0.408948	1.282653
C54	C	-4.332139	0.328044	1.449358
C55	C	-4.244564	0.385820	1.365440
H56	H	-4.285954	0.329882	1.521422
H57	H	-4.284601	0.265260	1.405882
H58	H	-4.485288	0.349807	1.477706
H59	H	-4.091419	0.364048	1.337080
H60	H	-4.292074	0.448599	1.408914
O61	O	-4.166471	0.459647	0.827959
C62	C	-4.383032	0.515851	0.877761
H63	H	-4.494056	0.469001	0.907621
H64	H	-4.406599	0.567394	0.965002
C65	C	-4.301420	0.628445	0.737304
C66	C	-4.437783	0.570902	0.773968
H67	H	-4.335193	0.662407	0.673283
H68	H	-4.155517	0.590582	0.703754
H69	H	-4.321073	0.671390	0.810014
H70	H	-4.418109	0.527952	0.701262
H71	H	-4.583685	0.608759	0.807503
O72	O	-3.914122	-0.218279	0.943559
C73	C	-3.982345	-0.200744	1.078902
H74	H	-3.966574	-0.129264	1.110589
H75	H	-4.158131	-0.200899	1.121396
C76	C	-3.860085	-0.365732	1.087615
C77	C	-3.840697	-0.277942	1.126534
H78	H	-3.772718	-0.413353	1.116999
H79	H	-3.814129	-0.377547	0.996433
H80	H	-4.006579	-0.365848	1.123030
H81	H	-3.694211	-0.277824	1.091106
H82	H	-3.886626	-0.266129	1.217712
H83	H	-4.270382	0.444797	1.076150
H84	H	-3.840791	-0.048379	0.607940
