data_functionalizedCrystal
_audit_creation_method	'MofGen! by Chris Wilmer'
_symmetry_space_group_name_H-M	'P1'
_symmetry_Int_Tables_number	1
_symmetry_cell_setting	triclinic
loop_
_symmetry_equiv_pos_as_xyz
  x,y,z
_cell_length_a	18.426585
_cell_length_b	21.606444
_cell_length_c	21.606444
_cell_angle_alpha	90.001146
_cell_angle_beta	60.004022
_cell_angle_gamma	59.997708
loop_
_atom_site_label
_atom_site_type_symbol
_atom_site_fract_x
_atom_site_fract_y
_atom_site_fract_z
Zr1	Zr	0.794316	0.596243	-0.081181
O2	O	0.945715	0.497416	-0.180001
O3	O	0.642916	0.626540	-0.050891
O4	O	0.794309	0.626539	-0.180003
O5	O	0.794327	0.497416	0.050961
O6	O	0.794304	0.728393	-0.180001
O7	O	0.794322	0.497417	-0.050889
O8	O	0.523490	0.728394	0.050957
O9	O	1.065142	0.497416	-0.179997
O10	O	0.705185	0.715473	-0.037967
O11	O	0.705193	0.639460	0.038041
O12	O	0.883439	0.639460	-0.113972
O13	O	0.883446	0.563447	-0.037964
Zr14	Zr	0.794316	0.758689	0.081261
Zr15	Zr	0.794308	0.758689	-0.081178
Zr16	Zr	0.794324	0.596243	0.081257
Zr17	Zr	0.984787	0.596243	-0.081175
Zr18	Zr	0.603844	0.758690	0.081255
O19	O	0.945715	0.728392	0.050971
O20	O	0.945704	0.728393	-0.179996
O21	O	0.945727	0.497416	0.050966
O22	O	0.642916	0.857516	0.180081
O23	O	0.642905	0.857516	-0.050886
O24	O	0.642928	0.626539	0.180076
O25	O	0.794304	0.857516	-0.050881
O26	O	0.794322	0.728393	0.180083
O27	O	0.794327	0.626539	0.180081
O28	O	0.794309	0.857516	0.050968
O29	O	1.065135	0.626538	-0.179995
O30	O	0.523496	0.728394	0.180074
O31	O	0.523490	0.857517	0.180077
O32	O	0.523483	0.857517	0.050960
O33	O	1.065148	0.497415	-0.050880
O34	O	1.065142	0.626538	-0.050878
O35	O	0.705193	0.715473	0.114052
O36	O	0.705185	0.791485	0.038044
O37	O	0.883439	0.715472	-0.037961
O38	O	0.883446	0.639459	0.038046
C39	C	0.556065	0.677467	0.000032
C40	C	0.475205	0.677467	0.000030
C41	C	0.794326	0.677466	0.203226
C42	C	0.794330	0.677466	0.272185
C43	C	0.794306	0.880661	0.000044
C44	C	0.794302	0.949623	0.000046
C45	C	0.179095	0.677463	0.000052
C46	C	0.261482	0.677462	0.000047
C47	C	0.327148	0.677465	0.000040
C48	C	0.409539	0.677465	0.000037
C49	C	1.032567	0.677465	0.000047
C50	C	1.113427	0.677465	0.000050
C51	C	0.794326	0.474272	0.000035
C52	C	0.794330	0.405309	0.000034
C53	C	0.701256	1.021700	0.039721
C54	C	0.701259	1.086495	0.039717
C55	C	0.794309	1.079211	0.000041
C56	C	0.887362	1.007127	-0.039639
C57	C	0.887358	0.942334	-0.039639
C58	C	0.887380	1.268430	-0.039642
C59	C	0.887376	1.333231	-0.039638
C60	C	0.701281	1.412591	0.039714
C61	C	0.701277	1.347798	0.039714
C62	C	0.794329	1.275719	0.000031
C63	C	0.794325	1.205462	0.000035
C64	C	0.794314	1.149467	0.000041
C65	C	0.794306	0.677466	-0.203146
C66	C	0.794302	0.677466	-0.272106
C67	C	0.887375	0.637789	0.264910
C68	C	0.887372	0.637786	0.329708
C69	C	0.794323	0.677464	0.401779
C70	C	0.701270	0.717142	0.409052
C71	C	0.701274	0.717140	0.344256
C72	C	0.701252	0.717148	0.670370
C73	C	0.701255	0.717148	0.735168
C74	C	0.887351	0.637793	0.655822
C75	C	0.887355	0.637792	0.591026
C76	C	0.794302	0.677466	0.598304
C77	C	0.794307	0.677468	0.528043
C78	C	0.794317	0.677467	0.472039
C79	C	0.556055	0.880662	0.000037
C80	C	0.475191	0.949624	0.000035
C81	C	0.556075	0.677467	0.203218
C82	C	0.475219	0.677467	0.272175
C83	C	0.556065	0.880661	0.203222
C84	C	0.475205	0.949624	0.272181
C85	C	1.032567	0.474271	-0.203143
C86	C	1.113427	0.405308	-0.272101
C87	C	1.032577	0.474270	0.000043
C88	C	1.113440	0.405308	0.000044
C89	C	1.032556	0.677465	-0.203139
C90	C	1.113413	0.677465	-0.272095
C91	C	0.437217	0.942332	-0.039649
C92	C	0.361247	1.007124	-0.039665
C93	C	0.323249	1.079207	0.000008
C94	C	0.361230	1.086498	0.039693
C95	C	0.437204	1.021707	0.039705
C96	C	0.437248	0.717145	0.344242
C97	C	0.361285	0.717142	0.409040
C98	C	0.323289	0.677466	0.401770
C99	C	0.361268	0.637783	0.329696
C100	C	0.437234	0.637782	0.264899
C101	C	0.437228	1.021694	0.264889
C102	C	0.361262	1.086498	0.329677
C103	C	0.323269	1.079230	0.401755
C104	C	0.361253	1.007152	0.409045
C105	C	0.437223	0.942350	0.344258
C106	C	1.151413	0.333238	-0.264810
C107	C	1.227402	0.268434	-0.329597
C108	C	1.265400	0.275702	-0.401675
C109	C	1.227410	0.347780	-0.408966
C110	C	1.151427	0.412582	-0.344179
C111	C	1.151423	0.412600	0.039722
C112	C	1.227413	0.347808	0.039720
C113	C	1.265415	0.275725	0.000045
C114	C	1.227429	0.268435	-0.039638
C115	C	1.151445	0.333226	-0.039640
C116	C	1.151384	0.717149	-0.264801
C117	C	1.227348	0.717164	-0.329587
C118	C	1.265343	0.677489	-0.401667
C119	C	1.227365	0.637804	-0.408959
C120	C	1.151397	0.637794	-0.344174
H121	H	0.625484	1.027640	0.072033
O122	O	1.264273	0.354807	0.078334
C123	C	1.245692	0.319715	0.134030
H124	H	1.236266	0.275541	0.117341
H125	H	1.172623	0.364264	0.190936
C126	C	1.348412	0.335132	0.161041
C127	C	1.336843	0.280872	0.140540
H128	H	1.404635	0.311175	0.165059
H129	H	1.360927	0.358777	0.123519
H130	H	1.287515	0.372253	0.208460
H131	H	1.397735	0.243759	0.093117
H132	H	1.324340	0.257221	0.178053
H133	H	0.468155	0.883645	-0.071965
H134	H	1.258358	0.353688	-0.467660
O135	O	0.610953	0.755671	0.805239
C136	C	0.630909	0.747146	0.860866
H137	H	0.710869	0.732549	0.835622
H138	H	0.626522	0.699631	0.881121
C139	C	0.452411	0.839669	0.959376
C140	C	0.550617	0.821746	0.928372
H141	H	0.402881	0.885684	1.001019
H142	H	0.438965	0.845411	0.921900
H143	H	0.448770	0.800067	0.976249
H144	H	0.554260	0.861343	0.911492
H145	H	0.564061	0.816013	0.965848
H146	H	0.261409	1.132003	0.454502
H147	H	0.330281	1.145196	0.071993
H148	H	0.468175	0.749454	0.350175
H149	H	0.330308	1.001246	0.467740
H150	H	1.120460	0.749457	-0.206116
O151	O	1.114377	0.482673	0.078249
C152	C	1.039184	0.538307	0.069731
H153	H	1.005946	0.513060	0.055128
H154	H	1.075525	0.558572	0.022225
C155	C	0.993678	0.636816	0.162263
C156	C	0.952849	0.605809	0.144333
H157	H	0.940424	0.678456	0.208278
H158	H	1.044340	0.599335	0.168000
H159	H	1.023962	0.653697	0.122668
H160	H	0.922577	0.588920	0.183922
H161	H	0.902180	0.643289	0.138604
H162	H	0.468134	0.883670	0.350206
H163	H	1.327201	0.677503	-0.454413
H164	H	0.625483	0.749456	0.676307
H165	H	1.258320	0.209752	-0.323646
H166	H	0.468113	1.027655	0.072025
O167	O	0.324480	1.156522	0.322617
C168	C	0.343045	1.196380	0.357719
H169	H	0.409623	1.154334	0.360722
H170	H	0.271334	1.234851	0.417477
C171	C	0.288489	1.296390	0.307593
C172	C	0.370266	1.244748	0.311275
H173	H	0.305275	1.326228	0.278947
H174	H	0.275977	1.269538	0.283946
H175	H	0.228736	1.328441	0.357395
H176	H	0.430013	1.212691	0.261475
H177	H	0.382789	1.271595	0.334913
O178	O	1.339173	0.212671	-0.464528
C179	C	1.364560	0.147505	-0.442626
H180	H	1.297920	0.162392	-0.382819
H181	H	1.435944	0.125690	-0.443796
C182	C	1.467734	0.067394	-0.571368
C183	C	1.385881	0.085678	-0.497914
H184	H	1.480891	0.029255	-0.605473
H185	H	1.450634	0.111297	-0.586125
H186	H	1.527212	0.049219	-0.572332
H187	H	1.326403	0.103861	-0.496948
H188	H	1.402972	0.041776	-0.483158
H189	H	0.625492	1.145181	0.072013
H190	H	1.120480	0.327306	-0.206126
H191	H	1.120490	0.605475	-0.350124
H192	H	0.330321	0.605480	0.323788
O193	O	1.114603	0.482533	-0.351403
C194	C	1.164457	0.475042	-0.428916
H195	H	1.195775	0.417211	-0.463459
H196	H	1.230437	0.480357	-0.448003
C197	C	1.049015	0.608828	-0.398712
C198	C	1.087473	0.537801	-0.441139
H199	H	1.001530	0.647542	-0.406253
H200	H	1.015430	0.613876	-0.346490
H201	H	1.104007	0.613247	-0.414623
H202	H	1.032483	0.533379	-0.425221
H203	H	1.121047	0.532753	-0.493358
H204	H	0.963139	0.605478	0.323778
H205	H	0.625507	1.353735	0.072025
H206	H	0.330372	0.749459	0.467720
O207	O	0.474088	0.599355	0.194855
C208	C	0.455478	0.650301	0.155015
H209	H	0.446038	0.702521	0.179747
H210	H	0.382408	0.668062	0.160426
C211	C	0.558205	0.547283	0.040402
C212	C	0.546618	0.611417	0.070774
H213	H	0.614421	0.523298	-0.011563
H214	H	0.570740	0.512959	0.067243
H215	H	0.497306	0.562093	0.044919
H216	H	0.607510	0.596606	0.066266
H217	H	0.534095	0.645738	0.043930
H218	H	1.258382	0.209736	-0.071940
O219	O	1.339356	0.212770	-0.000081
C220	C	1.427248	0.169346	-0.075153
H221	H	1.427145	0.207380	-0.111721
H222	H	1.426618	0.122431	-0.098499
C223	C	1.524373	0.087194	-0.031312
C224	C	1.524251	0.133910	-0.076224
H225	H	1.584210	0.065331	-0.031973
H226	H	1.465158	0.116447	0.019266
H227	H	1.523844	0.048104	-0.050772
H228	H	1.524766	0.173004	-0.056757
H229	H	1.583469	0.104661	-0.126798
H230	H	1.258262	0.749479	-0.323635
O231	O	1.114625	0.326001	-0.078189
C232	C	1.164482	0.248484	-0.113216
H233	H	1.195800	0.213939	-0.082093
H234	H	1.230463	0.229391	-0.174800
C235	C	1.049045	0.278690	-0.148554
C236	C	1.087502	0.236263	-0.110325
H237	H	1.001563	0.271151	-0.146775
H238	H	1.015457	0.330915	-0.124959
H239	H	1.104037	0.262775	-0.199871
H240	H	1.032512	0.252185	-0.059008
H241	H	1.121080	0.184040	-0.133912
H242	H	1.258312	0.605502	-0.467655
H243	H	0.963153	1.327292	-0.071945
O244	O	0.977743	1.198406	-0.078281
C245	C	0.983313	1.158539	-0.133962
H246	H	0.930508	1.200580	-0.148710
H247	H	0.958325	1.120086	-0.111256
C248	C	1.159339	1.058510	-0.187418
C249	C	1.094489	1.110146	-0.205537
H250	H	1.227918	1.028655	-0.231568
H251	H	1.155587	1.085367	-0.149903
H252	H	1.138504	1.026473	-0.168495
H253	H	1.115317	1.142187	-0.224450
H254	H	1.098248	1.083293	-0.243056
H255	H	0.625513	1.471287	0.072023
O256	O	0.473972	1.028900	0.194934
C257	C	0.424095	1.106413	0.202407
H258	H	0.392880	1.140969	0.260192
H259	H	0.358038	1.125503	0.197184
C260	C	0.539347	1.076177	0.068593
C261	C	0.501016	1.118618	0.139564
H262	H	0.586793	1.083706	0.029827
H263	H	0.572948	1.023954	0.063558
H264	H	0.484291	1.092090	0.064252
H265	H	0.556070	1.102698	0.143908
H266	H	0.467425	1.170838	0.144599
H267	H	0.625507	0.749445	0.467738
O268	O	0.977834	0.872373	-0.078195
C269	C	1.059964	0.879836	-0.113232
H270	H	1.032695	0.937652	-0.082109
H271	H	1.088561	0.874535	-0.174812
C272	C	1.181379	0.746037	-0.148589
C273	C	1.147888	0.817045	-0.110359
H274	H	1.235617	0.707303	-0.146820
H275	H	1.126047	0.741008	-0.124987
H276	H	1.205203	0.741630	-0.199902
H277	H	1.124053	0.821454	-0.059045
H278	H	1.203218	0.822073	-0.133952
O279	O	0.977717	0.599369	0.521001
C280	C	0.983274	0.650304	0.481141
H281	H	0.930469	0.710085	0.523182
H282	H	0.958279	0.648910	0.442691
C283	C	1.159298	0.553648	0.381114
C284	C	1.094448	0.627071	0.432750
H285	H	1.227875	0.539316	0.351261
H286	H	1.155554	0.519331	0.407967
H287	H	1.138456	0.552496	0.349080
H288	H	1.115283	0.628220	0.464789
H289	H	1.098199	0.661388	0.405901
O290	O	0.610798	0.755750	0.351455
C291	C	0.528667	0.790758	0.428960
H292	H	0.555940	0.798618	0.463521
H293	H	0.500062	0.753571	0.448047
C294	C	0.407256	0.858959	0.398705
C295	C	0.440751	0.868619	0.441153
H296	H	0.353023	0.906986	0.406227
H297	H	0.462588	0.835372	0.346488
H298	H	0.383425	0.827967	0.414616
H299	H	0.464593	0.899602	0.425236
H300	H	0.385420	0.892213	0.493368
H301	H	0.963124	1.001201	-0.071948
H302	H	0.261433	0.677473	0.454538
H303	H	0.963118	0.605485	0.649902
O304	O	0.324447	1.000072	-0.078307
C305	C	0.342990	1.035177	-0.133994
H306	H	0.409577	1.038170	-0.148746
H307	H	0.271277	1.094944	-0.111294
C308	C	0.288386	0.985071	-0.187443
C309	C	0.370176	0.988741	-0.205566
H310	H	0.305152	0.956430	-0.231591
H311	H	0.275889	0.961422	-0.149924
H312	H	0.228633	1.034879	-0.168525
H313	H	0.429924	0.938934	-0.224474
H314	H	0.382684	1.012380	-0.243090
O315	O	0.249313	1.142118	0.000085
C316	C	0.161443	1.141974	0.031607
H317	H	0.161542	1.105339	0.069573
H318	H	0.162113	1.118052	-0.015851
C319	C	0.064300	1.268616	0.032230
C320	C	0.064417	1.223625	0.078866
H321	H	0.004449	1.318982	0.061379
H322	H	0.123500	1.268713	0.010991
H323	H	0.064862	1.248672	-0.007315
H324	H	0.063868	1.243564	0.118404
H325	H	0.005214	1.223534	0.100114
H326	H	0.963147	0.605481	0.206230
