data_functionalizedCrystal
_audit_creation_method	'MofGen! by Chris Wilmer'
_symmetry_space_group_name_H-M	'P1'
_symmetry_Int_Tables_number	1
_symmetry_cell_setting	triclinic
loop_
_symmetry_equiv_pos_as_xyz
  x,y,z
_cell_length_a	21.395364
_cell_length_b	19.805405
_cell_length_c	19.805398
_cell_angle_alpha	89.975049
_cell_angle_beta	89.985076
_cell_angle_gamma	90.041677
loop_
_atom_site_label
_atom_site_type_symbol
_atom_site_fract_x
_atom_site_fract_y
_atom_site_fract_z
Zn1	Zn	0.957817	-0.269220	-0.382707
Zn2	Zn	1.457817	0.230780	0.117293
Zn3	Zn	0.957744	-0.382405	-0.269521
Zn4	Zn	1.457744	0.117595	0.230479
Zn5	Zn	0.853050	-0.269265	-0.269534
Zn6	Zn	1.353050	0.230735	0.230466
Zn7	Zn	0.853008	-0.382402	-0.382670
Zn8	Zn	1.353008	0.117598	0.117330
O9	O	0.905405	-0.325823	-0.326108
O10	O	1.405405	0.174177	0.173892
O11	O	1.045485	-0.284217	-0.367703
O12	O	1.545485	0.215783	0.132297
O13	O	0.943843	-0.367417	-0.174806
O14	O	1.443843	0.132583	0.325194
O15	O	0.866995	-0.174542	-0.284568
O16	O	1.366995	0.325458	0.215432
O17	O	1.045432	-0.367373	-0.284546
O18	O	1.545432	0.132627	0.215454
O19	O	0.943967	-0.174509	-0.367716
O20	O	1.443967	0.325491	0.132284
O21	O	0.866924	-0.284293	-0.174815
O22	O	1.366924	0.215707	0.325185
O23	O	0.765366	-0.284290	-0.284531
O24	O	1.265366	0.215710	0.215469
O25	O	0.866925	-0.367368	-0.477391
O26	O	1.366925	0.132632	0.022609
O27	O	0.765336	-0.367412	-0.367651
O28	O	1.265336	0.132588	0.132349
O29	O	0.943927	-0.284214	-0.477419
O30	O	1.443927	0.215786	0.022581
O31	O	0.943803	-0.477121	-0.284509
O32	O	1.443803	0.022879	0.215491
O33	O	0.866854	-0.477119	-0.367639
O34	O	1.366854	0.022881	0.132361
C35	C	0.742617	-0.325856	-0.326089
C36	C	1.242617	0.174144	0.173911
C37	C	0.672976	-0.325886	-0.326097
C38	C	1.172976	0.174114	0.173903
C39	C	0.905333	-0.501679	-0.326083
C40	C	1.405333	-0.001679	0.173917
C41	C	0.905360	-0.576911	-0.326096
C42	C	1.405360	-0.076911	0.173904
C43	C	0.640313	-0.282658	-0.369464
C44	C	1.140313	0.217342	0.130536
C45	C	0.574878	-0.282640	-0.369466
C46	C	1.074878	0.217360	0.130534
C47	C	0.542108	-0.325862	-0.326109
C48	C	1.042108	0.174138	0.173891
C49	C	0.574779	-0.369094	-0.282734
C50	C	1.074779	0.130906	0.217266
C51	C	0.640213	-0.369106	-0.282727
C52	C	1.140213	0.130894	0.217273
C53	C	0.438388	-0.386817	-0.320669
C54	C	0.938388	0.113183	0.179331
C55	C	0.372955	-0.386807	-0.320679
C56	C	0.872955	0.113193	0.179321
C57	C	0.340287	-0.325825	-0.326124
C58	C	0.840287	0.174175	0.173876
C59	C	0.373060	-0.264853	-0.331572
C60	C	0.873060	0.235147	0.168428
C61	C	0.438494	-0.264864	-0.331566
C62	C	0.938494	0.235136	0.168434
C63	C	0.471155	-0.325854	-0.326111
C64	C	0.971155	0.174146	0.173889
C65	C	0.236671	-0.282573	-0.369496
C66	C	0.736671	0.217427	0.130504
C67	C	0.171235	-0.282554	-0.369494
C68	C	0.671235	0.217446	0.130506
C69	C	0.171137	-0.369015	-0.282765
C70	C	0.671137	0.130985	0.217235
C71	C	0.236572	-0.369028	-0.282764
C72	C	0.736572	0.130972	0.217236
C73	C	0.269336	-0.325808	-0.326133
C74	C	0.769336	0.174192	0.173867
C75	C	0.945416	-0.612180	-0.369425
C76	C	1.445416	-0.112180	0.130575
C77	C	0.945439	-0.682868	-0.369437
C78	C	1.445439	-0.182868	0.130563
C79	C	0.905408	-0.718287	-0.326117
C80	C	1.405408	-0.218287	0.173883
C81	C	0.865348	-0.683013	-0.282786
C82	C	1.365348	-0.183013	0.217214
C83	C	0.865323	-0.612326	-0.282777
C84	C	1.365323	-0.112326	0.217223
C85	C	0.865449	-0.968086	-0.282820
C86	C	1.365449	-0.468086	0.217180
C87	C	0.865478	-1.038778	-0.282831
C88	C	1.365478	-0.538778	0.217169
C89	C	0.945565	-1.038629	-0.369481
C90	C	1.445565	-0.538629	0.130519
C91	C	0.945539	-0.967941	-0.369472
C92	C	1.445539	-0.467941	0.130528
C93	C	0.905477	-0.932674	-0.326144
C94	C	1.405477	-0.432674	0.173856
C95	C	0.905452	-0.856025	-0.326132
C96	C	1.405452	-0.356025	0.173868
C97	C	0.905436	-0.794934	-0.326125
C98	C	1.405436	-0.294934	0.173875
C99	C	1.068828	-0.325790	-0.326127
C100	C	1.568828	0.174210	0.173873
C101	C	1.138469	-0.325777	-0.326136
C102	C	1.638469	0.174223	0.173864
C103	C	0.905429	-0.325785	-0.502651
C104	C	1.405429	0.174215	-0.002651
C105	C	0.905440	-0.325769	-0.577883
C106	C	1.405440	0.174231	-0.077883
C107	C	0.905494	-0.149280	-0.326147
C108	C	1.405494	0.350720	0.173853
C109	C	0.905531	-0.074048	-0.326164
C110	C	1.405531	0.425952	0.173836
C111	C	0.945611	-0.282351	-1.039689
C112	C	1.445611	0.217649	-0.539689
C113	C	0.945601	-0.282372	-0.969001
C114	C	1.445601	0.217628	-0.469001
C115	C	0.905504	-0.325675	-0.933645
C116	C	1.405504	0.174325	-0.433645
C117	C	0.865419	-0.368966	-0.968980
C118	C	1.365419	0.131034	-0.468980
C119	C	0.865433	-0.368948	-1.039668
C120	C	1.365433	0.131052	-0.539668
C121	C	0.865365	-0.369039	-0.683907
C122	C	1.365365	0.130961	-0.183907
C123	C	0.865353	-0.369052	-0.613215
C124	C	1.365353	0.130948	-0.113215
C125	C	0.945533	-0.282463	-0.613240
C126	C	1.445533	0.217537	-0.113240
C127	C	0.945546	-0.282445	-0.683928
C128	C	1.445546	0.217555	-0.183928
C129	C	0.905464	-0.325738	-0.719257
C130	C	1.405464	0.174262	-0.219257
C131	C	0.905476	-0.325716	-0.795906
C132	C	1.405476	0.174284	-0.295906
C133	C	0.905489	-0.325694	-0.856997
C134	C	1.405489	0.174306	-0.356997
C135	C	0.905416	-0.325811	-0.150252
C136	C	1.405416	0.174189	0.349748
C137	C	0.905527	-0.325637	-0.075020
C138	C	1.405527	0.174363	0.424980
H139	H	0.666985	-0.247464	-0.404778
H140	H	1.166985	0.252536	0.095222
H141	H	0.666807	-0.404309	-0.247412
H142	H	1.166807	0.095691	0.252588
H143	H	0.548278	-0.247434	-0.404780
H144	H	1.048278	0.252566	0.095220
H145	H	0.346463	-0.215195	-0.336006
H146	H	0.846463	0.284805	0.163994
H147	H	0.978195	-0.247181	-0.712711
H148	H	1.478195	0.252819	-0.212711
C149	C	0.989631	-0.234846	-0.574376
C150	C	1.489631	0.265154	-0.074376
C151	C	0.962500	-0.181726	-0.525786
C152	C	1.462500	0.318274	-0.025786
C153	C	1.006595	-0.134108	-0.486923
C154	C	1.506595	0.365892	0.013077
C155	C	1.077821	-0.139610	-0.496651
C156	C	1.577821	0.360390	0.003349
C157	C	1.104956	-0.192732	-0.545244
C158	C	1.604956	0.307268	-0.045244
C159	C	1.060861	-0.240350	-0.584106
C160	C	1.560861	0.259650	-0.084106
H161	H	0.909771	-0.177650	-0.518582
H162	H	1.409771	0.322350	-0.018582
H163	H	0.986508	-0.094783	-0.450952
H164	H	1.486508	0.405217	0.049048
H165	H	1.110463	-0.104361	-0.467883
H166	H	1.610463	0.395639	0.032117
H167	H	1.157685	-0.196808	-0.552447
H168	H	1.657685	0.303192	-0.052447
H169	H	1.080948	-0.279675	-0.620078
H170	H	1.580948	0.220325	-0.120078
C171	C	0.821438	-1.077740	-0.235180
C172	C	1.321438	-0.577740	0.264820
C173	C	0.826584	-1.068059	-0.158237
C174	C	1.326584	-0.568059	0.341763
C175	C	0.782547	-1.107021	-0.110589
C176	C	1.282547	-0.607021	0.389411
C177	C	0.733364	-1.155664	-0.139882
C178	C	1.233364	-0.655664	0.360118
C179	C	0.728215	-1.165347	-0.216829
C180	C	1.228215	-0.665347	0.283171
C181	C	0.772253	-1.126385	-0.264477
C182	C	1.272253	-0.626385	0.235523
H183	H	0.862994	-1.032049	-0.136549
H184	H	1.362994	-0.532049	0.363451
H185	H	0.786358	-1.099853	-0.053628
H186	H	1.286358	-0.599853	0.446372
H187	H	0.700765	-1.184506	-0.104610
H188	H	1.200765	-0.684506	0.395390
H189	H	0.691805	-1.201358	-0.238517
H190	H	1.191805	-0.701358	0.261483
H191	H	0.768441	-1.133554	-0.321438
H192	H	1.268441	-0.633554	0.178562
C193	C	0.989718	-0.234716	-1.078578
C194	C	1.489718	0.265284	-0.578578
C195	C	0.989735	-0.234691	-1.156331
C196	C	1.489735	0.265309	-0.656331
C197	C	1.033846	-0.187055	-1.195218
C198	C	1.533846	0.312945	-0.695218
C199	C	1.077939	-0.139445	-1.156351
C200	C	1.577939	0.360555	-0.656351
C201	C	1.077924	-0.139468	-1.078594
C202	C	1.577924	0.360532	-0.578594
C203	C	1.033813	-0.187104	-1.039707
C204	C	1.533813	0.312896	-0.539707
H205	H	0.957093	-0.269936	-1.185107
H206	H	1.457093	0.230064	-0.685107
H207	H	1.033857	-0.187039	-1.252779
H208	H	1.533857	0.312961	-0.752779
H209	H	1.110593	-0.104183	-1.185137
H210	H	1.610593	0.395817	-0.685137
H211	H	1.110566	-0.104223	-1.049818
H212	H	1.610566	0.395777	-0.549818
H213	H	1.033802	-0.187121	-0.982146
H214	H	1.533802	0.312879	-0.482146
H215	H	0.832697	-0.404315	-0.584430
H216	H	1.332697	0.095685	-0.084430
C217	C	0.821245	-0.416627	-0.722764
C218	C	1.321245	0.083373	-0.222764
C219	C	0.777118	-0.464233	-0.683871
C220	C	1.277118	0.035767	-0.183871
C221	C	0.732983	-0.511809	-0.722731
C222	C	1.232983	-0.011809	-0.222731
C223	C	0.732975	-0.511779	-0.800484
C224	C	1.232975	-0.011779	-0.300484
C225	C	0.777103	-0.464170	-0.839381
C226	C	1.277103	0.035830	-0.339381
C227	C	0.821238	-0.416594	-0.800521
C228	C	1.321238	0.083406	-0.300521
H229	H	0.777123	-0.464258	-0.626309
H230	H	1.277123	0.035742	-0.126309
H231	H	0.700316	-0.547052	-0.693936
H232	H	1.200316	-0.047052	-0.193936
H233	H	0.700303	-0.546997	-0.829250
H234	H	1.200303	-0.046997	-0.329250
H235	H	0.777098	-0.464146	-0.896943
H236	H	1.277098	0.035854	-0.396943
H237	H	0.853905	-0.381351	-0.829316
H238	H	1.353905	0.118649	-0.329316
H239	H	0.263349	-0.247377	-0.404806
H240	H	0.763349	0.252623	0.095194
H241	H	0.978183	-1.067352	-0.404763
H242	H	1.478183	-0.567352	0.095237
H243	H	0.144642	-0.247348	-0.404808
H244	H	0.644642	0.252652	0.095192
C245	C	0.538735	-0.416641	-0.235040
C246	C	1.038735	0.083359	0.264960
C247	C	0.547673	-0.493595	-0.240423
C248	C	1.047673	0.006405	0.259577
C249	C	0.511631	-0.541141	-0.192725
C250	C	1.011631	-0.041141	0.307275
C251	C	0.466651	-0.511733	-0.139644
C252	C	0.966651	-0.011733	0.360356
C253	C	0.457711	-0.434775	-0.134260
C254	C	0.957711	0.065225	0.365740
C255	C	0.493753	-0.387229	-0.181958
C256	C	0.993753	0.112771	0.318042
H257	H	0.580972	-0.515368	-0.279718
H258	H	1.080972	-0.015368	0.220282
H259	H	0.518249	-0.598111	-0.196711
H260	H	1.018249	-0.098111	0.303289
H261	H	0.439970	-0.546930	-0.104335
H262	H	0.939970	-0.046930	0.395665
H263	H	0.424412	-0.413002	-0.094964
H264	H	0.924412	0.086998	0.405036
H265	H	0.487135	-0.330259	-0.177971
H266	H	0.987135	0.169741	0.322029
H267	H	0.263167	-0.404232	-0.247452
H268	H	0.763167	0.095768	0.252548
C269	C	0.135100	-0.416561	-0.235069
C270	C	0.635100	0.083439	0.264931
C271	C	0.090124	-0.387151	-0.181984
C272	C	0.590124	0.112849	0.318016
C273	C	0.054084	-0.434696	-0.134283
C274	C	0.554084	0.065304	0.365717
C275	C	0.063019	-0.511650	-0.139667
C276	C	0.563019	-0.011650	0.360333
C277	C	0.107996	-0.541064	-0.192753
C278	C	0.607996	-0.041064	0.307247
C279	C	0.144037	-0.493519	-0.240454
C280	C	0.644037	0.006481	0.259546
H281	H	0.083508	-0.330181	-0.177997
H282	H	0.583508	0.169819	0.322003
H283	H	0.020789	-0.412922	-0.094985
H284	H	0.520789	0.087078	0.405015
H285	H	0.036340	-0.546846	-0.104356
H286	H	0.536340	-0.046846	0.395644
H287	H	0.114612	-0.598034	-0.196741
H288	H	0.614612	-0.098034	0.303259
H289	H	0.177332	-0.515293	-0.279752
H290	H	0.677332	-0.015293	0.220248
C291	C	0.821262	-0.573527	-0.235113
C292	C	1.321262	-0.073527	0.264887
C293	C	0.777230	-0.612483	-0.187459
C294	C	1.277230	-0.112483	0.312541
C295	C	0.733166	-0.573685	-0.139795
C296	C	1.233166	-0.073685	0.360205
C297	C	0.733134	-0.495932	-0.139786
C298	C	1.233134	0.004068	0.360214
C299	C	0.777168	-0.456972	-0.187442
C300	C	1.277168	0.043028	0.312558
C301	C	0.821232	-0.495770	-0.235105
C302	C	1.321232	0.004230	0.264895
H303	H	0.777253	-0.670044	-0.187464
H304	H	1.277253	-0.170044	0.312536
H305	H	0.700569	-0.602526	-0.104517
H306	H	1.200569	-0.102526	0.395483
H307	H	0.700515	-0.467212	-0.104503
H308	H	1.200515	0.032788	0.395497
H309	H	0.777145	-0.399411	-0.187436
H310	H	1.277145	0.100589	0.312564
H311	H	0.853828	-0.466929	-0.270383
H312	H	1.353828	0.033071	0.229617
H313	H	0.346277	-0.436454	-0.316247
H314	H	0.846277	0.063546	0.183753
H315	H	0.465175	-0.215218	-0.336000
H316	H	0.965175	0.284782	0.164000
H317	H	0.464981	-0.436480	-0.316234
H318	H	0.964981	0.063520	0.183766
H319	H	0.978016	-0.583347	-0.404698
H320	H	1.478016	-0.083347	0.095302
H321	H	0.978061	-0.711581	-0.404715
H322	H	1.478061	-0.211581	0.095285
C323	C	0.989570	-0.928982	-0.417128
C324	C	1.489570	-0.428982	0.082872
C325	C	1.033628	-0.967776	-0.464796
C326	C	1.533628	-0.467776	0.035204
C327	C	1.077657	-0.928818	-0.512456
C328	C	1.577657	-0.428818	-0.012456
C329	C	1.077628	-0.851065	-0.512449
C330	C	1.577628	-0.351065	-0.012449
C331	C	1.033569	-0.812266	-0.464780
C332	C	1.533569	-0.312266	0.035220
C333	C	0.989540	-0.851224	-0.417119
C334	C	1.489540	-0.351224	0.082881
H335	H	1.033650	-1.025338	-0.464803
H336	H	1.533650	-0.525338	0.035197
H337	H	1.110272	-0.957540	-0.547744
H338	H	1.610272	-0.457540	-0.047744
H339	H	1.110221	-0.822225	-0.547730
H340	H	1.610221	-0.322225	-0.047730
H341	H	1.033547	-0.754705	-0.464773
H342	H	1.533547	-0.254705	0.035227
H343	H	0.956925	-0.822502	-0.381831
H344	H	1.456925	-0.322502	0.118169
H345	H	0.832775	-0.404227	-0.940188
H346	H	1.332775	0.095773	-0.440188
H347	H	0.832830	-0.939377	-0.247540
H348	H	1.332830	-0.439377	0.252460
H349	H	0.978242	-0.247126	-0.940238
H350	H	1.478242	0.252874	-0.440238
H351	H	0.832793	-0.404196	-1.068433
H352	H	1.332793	0.095804	-0.568433
H353	H	0.832752	-0.711856	-0.247516
H354	H	1.332752	-0.211856	0.252484
