data_functionalizedCrystal
_audit_creation_method	'MofGen! by Chris Wilmer'
_symmetry_space_group_name_H-M	'P1'
_symmetry_Int_Tables_number	1
_symmetry_cell_setting	triclinic
loop_
_symmetry_equiv_pos_as_xyz
  x,y,z
_cell_length_a	14.853567
_cell_length_b	13.448316
_cell_length_c	14.971494
_cell_angle_alpha	89.995115
_cell_angle_beta	83.626244
_cell_angle_gamma	89.996214
loop_
_atom_site_label
_atom_site_type_symbol
_atom_site_fract_x
_atom_site_fract_y
_atom_site_fract_z
O1	O	1.196350	-0.082619	0.116781
O2	O	1.696350	0.417381	0.616781
O3	O	0.933888	-0.082636	0.130692
O4	O	1.433888	0.417364	0.630692
O5	O	1.072149	-0.082625	-0.006462
O6	O	1.572149	0.417375	0.493538
O7	O	1.058088	-0.082630	0.253935
O8	O	1.558088	0.417370	0.753935
O9	O	1.072132	0.082759	-0.006470
O10	O	1.572132	0.582759	0.493530
O11	O	0.933870	0.082748	0.130684
O12	O	1.433870	0.582748	0.630684
O13	O	1.196332	0.082764	0.116773
O14	O	1.696332	0.582764	0.616773
Cu15	Cu	1.065100	0.097857	0.123727
Cu16	Cu	1.565100	0.597857	0.623727
Cu17	Cu	1.065120	-0.097729	0.123737
Cu18	Cu	1.565120	0.402271	0.623737
O19	O	1.058071	0.082753	0.253927
O20	O	1.558071	0.582753	0.753927
C21	C	0.900291	0.000054	0.130058
C22	C	1.400291	0.500054	0.630058
C23	C	0.800207	0.000047	0.128169
C24	C	1.300207	0.500047	0.628169
C25	C	1.071511	0.000065	-0.039790
C26	C	1.571511	0.500065	0.460210
C27	C	1.069622	0.000061	-0.139088
C28	C	1.569622	0.500061	0.360912
N29	N	1.065092	0.235421	0.123720
N30	N	1.565092	0.735421	0.623720
C31	C	0.387687	0.000071	0.038712
C32	C	0.887687	0.500071	0.538712
C33	C	0.366381	0.000067	0.201654
C34	C	0.866381	0.500067	0.701654
C35	C	0.460415	0.000064	0.203430
C36	C	0.960415	0.500064	0.703430
C37	C	0.518089	0.000063	0.122846
C38	C	1.018089	0.500063	0.622846
C39	C	0.481730	0.000065	0.040486
C40	C	0.981730	0.500065	0.540486
C41	C	0.496781	0.000052	0.285789
C42	C	0.996781	0.500052	0.785789
C43	C	0.590820	0.000047	0.287568
C44	C	1.090820	0.500047	0.787568
C45	C	0.648496	0.000053	0.206983
C46	C	1.148496	0.500053	0.706983
C47	C	0.612131	0.000057	0.124619
C48	C	1.112131	0.500057	0.624619
C49	C	0.669805	0.000056	0.044035
C50	C	1.169805	0.500056	0.544035
C51	C	0.633443	0.000066	-0.038329
C52	C	1.133443	0.500066	0.461671
C53	C	0.539406	0.000071	-0.040100
C54	C	1.039406	0.500071	0.459900
C55	C	0.742533	0.000048	0.208753
C56	C	1.242533	0.500048	0.708753
C57	C	0.763848	0.000050	0.045809
C58	C	1.263848	0.500050	0.545809
C59	C	1.229929	0.000072	0.117407
C60	C	1.729929	0.500072	0.617407
C61	C	1.330013	0.000072	0.119296
C62	C	1.830013	0.500072	0.619296
N63	N	1.065135	-0.235293	0.123738
N64	N	1.565135	0.264707	0.623738
C65	C	1.126333	0.287466	0.063013
C66	C	1.626333	0.787466	0.563013
C67	C	1.126339	0.391570	0.063012
C68	C	1.626339	0.891570	0.563012
C69	C	1.065107	0.443626	0.123723
C70	C	1.565107	0.943626	0.623723
C71	C	1.003859	0.391573	0.184433
C72	C	1.503859	0.891573	0.684433
C73	C	1.003850	0.287472	0.184429
C74	C	1.503850	0.787472	0.684429
C75	C	1.003884	0.608553	0.184439
C76	C	1.503884	1.108553	0.684439
C77	C	1.003894	0.712662	0.184445
C78	C	1.503894	1.212662	0.684445
C79	C	1.126373	0.712651	0.063023
C80	C	1.626373	1.212651	0.563023
C81	C	1.126364	0.608550	0.063018
C82	C	1.626364	1.108550	0.563018
C83	C	1.065117	0.556504	0.123729
C84	C	1.565117	1.056504	0.623729
C85	C	1.068746	-0.090091	-0.185728
C86	C	1.568746	0.409909	0.314272
C87	C	1.066966	-0.090093	-0.279027
C88	C	1.566966	0.409907	0.220973
C89	C	1.066068	0.000059	-0.325685
C90	C	1.566068	0.500059	0.174315
C91	C	1.066941	0.090218	-0.279038
C92	C	1.566941	0.590218	0.220962
C93	C	1.068715	0.090218	-0.185740
C94	C	1.568715	0.590218	0.314260
C95	C	1.063246	0.090211	-0.473502
C96	C	1.563246	0.590211	0.026498
C97	C	1.061474	0.090211	-0.566807
C98	C	1.561474	0.590211	-0.066807
C99	C	1.061497	-0.090100	-0.566789
C100	C	1.561497	0.409900	-0.066789
C101	C	1.063271	-0.090100	-0.473491
C102	C	1.563271	0.409900	0.026509
C103	C	1.064146	0.000060	-0.426850
C104	C	1.564146	0.500060	0.073150
C105	C	1.058709	0.000061	0.287255
C106	C	1.558709	0.500061	0.787255
C107	C	1.060598	0.000059	0.386553
C108	C	1.560598	0.500059	0.886553
H109	H	0.810801	0.000053	-0.019814
H110	H	1.310801	0.500053	0.480186
H111	H	1.060783	-0.163511	-0.604768
H112	H	1.560783	0.336489	-0.104768
C113	C	0.936476	0.448828	0.251189
C114	C	1.436476	0.948828	0.751189
H115	H	0.899988	0.402919	0.287330
H116	H	1.399988	0.902919	0.787330
H117	H	0.968920	0.489441	0.288496
H118	H	1.468920	0.989441	0.788496
H119	H	0.898928	0.489433	0.218913
H120	H	1.398928	0.989433	0.718913
H121	H	0.772135	0.000041	0.275813
H122	H	1.272135	0.500041	0.775813
H123	H	1.176199	0.245089	0.013579
H124	H	1.676199	0.745089	0.513579
H125	H	1.176205	0.433944	0.013580
H126	H	1.676205	0.933944	0.513580
H127	H	1.066204	0.163621	-0.317034
H128	H	1.566204	0.663621	0.182966
H129	H	1.063938	0.163628	-0.435528
H130	H	1.563938	0.663628	0.064472
C131	C	0.347693	0.000079	-0.051882
C132	C	0.847693	0.500079	0.448118
H133	H	0.283428	0.000077	-0.041402
H134	H	0.783428	0.500077	0.458598
H135	H	0.367486	0.057749	-0.085071
H136	H	0.867486	0.557749	0.414929
H137	H	0.367482	-0.057604	-0.085059
H138	H	0.867482	0.442396	0.414941
H139	H	0.509790	0.000104	-0.107157
H140	H	1.009790	0.500104	0.392843
H141	H	1.066257	-0.163503	-0.316998
H142	H	1.566257	0.336497	0.183002
C143	C	1.069737	-0.189257	-0.134408
C144	C	1.569737	0.310743	0.365592
H145	H	1.070928	-0.176348	-0.072163
H146	H	1.570928	0.323652	0.427837
H147	H	1.016919	-0.226305	-0.142941
H148	H	1.516919	0.273695	0.357059
H149	H	1.121991	-0.226292	-0.156454
H150	H	1.621991	0.273708	0.343546
C151	C	1.060487	0.189372	-0.618134
C152	C	1.560487	0.689372	-0.118134
H153	H	1.059318	0.176456	-0.680381
H154	H	1.559318	0.676456	-0.180381
H155	H	1.008240	0.226414	-0.596100
H156	H	1.508240	0.726414	-0.096100
H157	H	1.113312	0.226418	-0.609600
H158	H	1.613312	0.726418	-0.109600
C159	C	0.302943	0.000070	0.290289
C160	C	0.802943	0.500070	0.790289
H161	H	0.241730	0.000080	0.277436
H162	H	0.741730	0.500080	0.777436
H163	H	0.313976	-0.057601	0.324063
H164	H	0.813976	0.442399	0.824063
H165	H	0.313975	0.057752	0.324046
H166	H	0.813975	0.557752	0.824046
C167	C	1.193716	0.551289	-0.003762
C168	C	1.693716	1.051289	0.496238
H169	H	1.230188	0.597193	-0.039925
H170	H	1.730188	1.097193	0.460075
H171	H	1.231271	0.510665	0.028481
H172	H	1.731271	1.010665	0.528481
H173	H	1.161235	0.510694	-0.041059
H174	H	1.661235	1.010694	0.458941
H175	H	0.954007	0.566182	0.233874
H176	H	1.454007	1.066182	0.733874
H177	H	1.176242	0.755032	0.013590
H178	H	1.676242	1.255032	0.513590
C179	C	0.433345	0.000039	0.374425
C180	C	0.933345	0.500039	0.874425
H181	H	0.468468	0.000019	0.423730
H182	H	0.968468	0.500019	0.923730
H183	H	0.396215	0.057712	0.377124
H184	H	0.896215	0.557712	0.877124
H185	H	0.396222	-0.057641	0.377110
H186	H	0.896222	0.442359	0.877110
C187	C	1.069680	0.189385	-0.134436
C188	C	1.569680	0.689385	0.365564
H189	H	1.068899	0.243077	-0.175585
H190	H	1.568899	0.743077	0.324415
H191	H	1.017839	0.193128	-0.091286
H192	H	1.517839	0.693128	0.408714
H193	H	1.122910	0.193137	-0.104796
H194	H	1.622910	0.693137	0.395204
H195	H	0.680413	0.000059	-0.103941
H196	H	1.180413	0.500059	0.396059
H197	H	0.620418	0.000039	0.354634
H198	H	1.120418	0.500039	0.854634
H199	H	0.954032	0.755041	0.233881
H200	H	1.454032	1.255041	0.733881
H201	H	0.953980	0.245098	0.233861
H202	H	1.453980	0.745098	0.733861
C203	C	1.064257	-0.189264	-0.422168
C204	C	1.564257	0.310736	0.077832
H205	H	1.063473	-0.242959	-0.463305
H206	H	1.563473	0.257041	0.036695
H207	H	1.117480	-0.193007	-0.392524
H208	H	1.617480	0.306993	0.107476
H209	H	1.012409	-0.193008	-0.379019
H210	H	1.512409	0.306992	0.120981
