data_functionalizedCrystal
_audit_creation_method	'MofGen! by Chris Wilmer'
_symmetry_space_group_name_H-M	'P1'
_symmetry_Int_Tables_number	1
_symmetry_cell_setting	triclinic
loop_
_symmetry_equiv_pos_as_xyz
  x,y,z
_cell_length_a	21.395362
_cell_length_b	12.759399
_cell_length_c	12.759393
_cell_angle_alpha	90.032031
_cell_angle_beta	89.958968
_cell_angle_gamma	89.969005
loop_
_atom_site_label
_atom_site_type_symbol
_atom_site_fract_x
_atom_site_fract_y
_atom_site_fract_z
Zn1	Zn	0.957909	0.417758	-0.594612
Zn2	Zn	1.457909	0.917758	-0.094612
Zn3	Zn	0.957846	0.593477	-0.418930
Zn4	Zn	1.457846	1.093477	0.081070
Zn5	Zn	0.853130	0.417862	-0.418882
Zn6	Zn	1.353130	0.917862	0.081118
Zn7	Zn	0.853122	0.593445	-0.594503
Zn8	Zn	1.353122	1.093445	-0.094503
O9	O	0.905502	0.505635	-0.506732
O10	O	1.405502	1.005635	-0.006732
O11	O	1.045579	0.441038	-0.571373
O12	O	1.545579	0.941038	-0.071373
O13	O	0.943931	0.570239	-0.271903
O14	O	1.443931	1.070239	0.228097
O15	O	0.867059	0.270827	-0.442218
O16	O	1.367059	0.770827	0.057782
O17	O	1.045532	0.570138	-0.442301
O18	O	1.545532	1.070138	0.057699
O19	O	0.944040	0.270751	-0.571326
O20	O	1.444040	0.770751	-0.071326
O21	O	0.866997	0.441215	-0.271867
O22	O	1.366997	0.941215	0.228133
O23	O	0.765451	0.441183	-0.442112
O24	O	1.265451	0.941183	0.057888
O25	O	0.867046	0.570082	-0.741538
O26	O	1.367046	1.070082	-0.241538
O27	O	0.765445	0.570183	-0.571140
O28	O	1.265445	1.070183	-0.071140
O29	O	0.944033	0.441006	-0.741618
O30	O	1.444033	0.941006	-0.241618
O31	O	0.943924	0.740494	-0.442195
O32	O	1.443924	1.240494	0.057805
O33	O	0.866984	0.740470	-0.571187
O34	O	1.366984	1.240470	-0.071187
C35	C	0.905463	0.778603	-0.506708
C36	C	1.405463	1.278603	-0.006708
C37	C	0.905504	0.895379	-0.506733
C38	C	1.405504	1.395379	-0.006733
C39	C	0.742714	0.505691	-0.506610
C40	C	1.242714	1.005691	-0.006610
C41	C	0.673073	0.505740	-0.506582
C42	C	1.173073	1.005740	-0.006582
C43	C	0.905545	0.505529	-0.780765
C44	C	1.405545	1.005529	-0.280765
C45	C	0.905564	0.505484	-0.897542
C46	C	1.405564	1.005484	-0.397542
C47	C	0.640373	0.572999	-0.573667
C48	C	1.140373	1.072999	-0.073667
C49	C	0.574938	0.572974	-0.573713
C50	C	1.074938	1.072974	-0.073713
C51	C	0.542204	0.505700	-0.506657
C52	C	1.042204	1.005700	-0.006657
C53	C	0.574912	0.438427	-0.439568
C54	C	1.074912	0.938427	0.060432
C55	C	0.640346	0.438448	-0.439531
C56	C	1.140346	0.938448	0.060469
C57	C	0.438481	0.497265	-0.412075
C58	C	0.938481	0.997265	0.087925
C59	C	0.373048	0.497252	-0.412110
C60	C	0.873048	0.997252	0.087890
C61	C	0.340384	0.505631	-0.506773
C62	C	0.840384	1.005631	-0.006773
C63	C	0.373160	0.514045	-0.601404
C64	C	0.873160	1.014045	-0.101404
C65	C	0.438594	0.514065	-0.601366
C66	C	0.938594	1.014065	-0.101366
C67	C	0.471252	0.505670	-0.506691
C68	C	0.971252	1.005670	-0.006691
C69	C	0.236732	0.572866	-0.573914
C70	C	0.736732	1.072866	-0.073914
C71	C	0.171295	0.572833	-0.573963
C72	C	0.671295	1.072833	-0.073963
C73	C	0.171271	0.438292	-0.439808
C74	C	0.671271	0.938292	0.060192
C75	C	0.236706	0.438320	-0.439769
C76	C	0.736706	0.938320	0.060231
C77	C	0.269433	0.505612	-0.506820
C78	C	0.769433	1.005612	-0.006820
C79	C	1.068925	0.505580	-0.506855
C80	C	1.568925	1.005580	-0.006855
C81	C	1.138566	0.505557	-0.506907
C82	C	1.638566	1.005557	-0.006907
C83	C	0.905557	0.231602	-0.506779
C84	C	1.405557	0.731602	-0.006779
C85	C	0.905581	0.114825	-0.506799
C86	C	1.405581	0.614825	-0.006799
C87	C	0.945613	0.950219	-0.439643
C88	C	1.445613	1.450219	0.060357
C89	C	0.945653	1.059943	-0.439678
C90	C	1.445653	1.559943	0.060322
C91	C	0.865471	1.059978	-0.573896
C92	C	1.365471	1.559978	-0.073896
C93	C	0.865434	0.950256	-0.573865
C94	C	1.365434	1.450256	-0.073865
C95	C	0.865519	0.438289	-0.952385
C96	C	1.365519	0.938289	-0.452385
C97	C	0.865533	0.438256	-1.062109
C98	C	1.365533	0.938256	-0.562109
C99	C	0.945644	0.572617	-1.062138
C100	C	1.445644	1.072617	-0.562138
C101	C	0.945626	0.572654	-0.952415
C102	C	1.445626	1.072654	-0.452415
C103	C	0.905494	0.505665	-0.233764
C104	C	1.405494	1.005665	0.266236
C105	C	0.905597	0.505415	-0.116988
C106	C	1.405597	1.005415	0.383012
H107	H	0.548309	0.627744	-0.628345
H108	H	1.048309	1.127744	-0.128345
H109	H	0.978237	0.627377	-0.907761
H110	H	1.478237	1.127377	-0.407761
O111	O	0.984449	0.896863	-0.374328
O112	O	1.484449	1.396863	0.125672
C113	C	0.948779	0.833499	-0.306393
C114	C	1.448779	1.333499	0.193607
H115	H	0.899445	0.866661	-0.299807
H116	H	1.399445	1.366661	0.200193
H117	H	0.971467	0.832281	-0.225587
H118	H	1.471467	1.332281	0.274413
H119	H	0.946583	0.750319	-0.338848
H120	H	1.446583	1.250319	0.161152
H121	H	0.832898	0.383595	-0.907710
H122	H	1.332898	0.883595	-0.407710
O123	O	0.826615	0.372882	-1.115220
O124	O	1.326615	0.872882	-0.615220
C125	C	0.791242	0.313628	-1.043255
C126	C	1.291242	0.813628	-0.543255
H127	H	0.816896	0.310010	-0.965062
H128	H	1.316896	0.810010	-0.465062
H129	H	0.784583	0.230842	-1.074971
H130	H	1.284583	0.730842	-0.574971
H131	H	0.743646	0.352117	-1.031537
H132	H	1.243646	0.852117	-0.531537
O133	O	0.984628	0.637706	-1.115492
O134	O	1.484628	1.137706	-0.615492
C135	C	1.025109	0.577858	-1.179021
C136	C	1.525109	1.077858	-0.679021
H137	H	1.028992	0.495122	-1.145975
H138	H	1.528992	0.995122	-0.645975
H139	H	1.073319	0.615842	-1.180294
H140	H	1.573319	1.115842	-0.680294
H141	H	1.005751	0.574214	-1.262164
H142	H	1.505751	1.074214	-0.762164
H143	H	0.667015	0.627793	-0.628267
H144	H	1.167015	1.127793	-0.128267
H145	H	0.465278	0.520913	-0.678417
H146	H	0.965278	1.020913	-0.178417
O147	O	0.139458	0.638222	-0.638986
O148	O	0.639458	1.138222	-0.138986
C149	C	0.101550	0.706006	-0.579069
C150	C	0.601550	1.206006	-0.079069
H151	H	0.091714	0.668847	-0.499523
H152	H	0.591714	1.168847	0.000477
H153	H	0.055557	0.720120	-0.621865
H154	H	0.555557	1.220120	-0.121865
H155	H	0.126724	0.783860	-0.567368
H156	H	0.626724	1.283860	-0.067368
H157	H	0.978314	1.104589	-0.385048
H158	H	1.478314	1.604589	0.114952
H159	H	0.832846	1.104672	-0.628551
H160	H	1.332846	1.604672	-0.128551
H161	H	0.346566	0.520866	-0.678488
H162	H	0.846566	1.020866	-0.178488
H163	H	0.263330	0.383555	-0.385136
H164	H	0.763330	0.883555	0.114864
H165	H	0.144620	0.383511	-0.385214
H166	H	0.644620	0.883511	0.114786
O167	O	0.268430	0.638253	-0.639154
O168	O	0.768430	1.138253	-0.139154
C169	C	0.225533	0.697624	-0.698367
C170	C	0.725533	1.197624	-0.198367
H171	H	0.178911	0.654579	-0.702105
H172	H	0.678911	1.154579	-0.202105
H173	H	0.244487	0.708929	-0.781115
H174	H	0.744487	1.208929	-0.281115
H175	H	0.218513	0.777373	-0.659766
H176	H	0.718513	1.277373	-0.159766
H177	H	0.346367	0.490408	-0.335056
H178	H	0.846367	0.990408	0.164944
H179	H	0.548256	0.383650	-0.384973
H180	H	1.048256	0.883650	0.115027
O181	O	0.470111	0.489176	-0.320013
O182	O	0.970111	0.989176	0.179987
C183	C	0.427153	0.481737	-0.236503
C184	C	0.927153	0.981737	0.263497
H185	H	0.380508	0.517044	-0.261349
H186	H	0.880508	1.017044	0.238651
H187	H	0.445993	0.526297	-0.165807
H188	H	0.945993	1.026297	0.334193
H189	H	0.420222	0.395856	-0.214824
H190	H	0.920222	0.895856	0.285176
H191	H	0.666970	0.383674	-0.384903
H192	H	1.166970	0.883674	0.115097
H193	H	0.832773	0.905603	-0.628503
H194	H	1.332773	1.405603	-0.128503
