data_functionalizedCrystal
_audit_creation_method	'MofGen! by Chris Wilmer'
_symmetry_space_group_name_H-M	'P1'
_symmetry_Int_Tables_number	1
_symmetry_cell_setting	triclinic
loop_
_symmetry_equiv_pos_as_xyz
  x,y,z
_cell_length_a	16.974885
_cell_length_b	15.995292
_cell_length_c	16.053802
_cell_angle_alpha	92.568169
_cell_angle_beta	91.069328
_cell_angle_gamma	83.430476
loop_
_atom_site_label
_atom_site_type_symbol
_atom_site_fract_x
_atom_site_fract_y
_atom_site_fract_z
O1	O	1.049046	0.106761	0.001393
O2	O	0.819584	0.119573	-0.014098
O3	O	0.940612	-0.008710	-0.005929
O4	O	0.928019	0.235044	-0.006777
O5	O	0.933950	-0.001678	0.132480
O6	O	0.812923	0.126605	0.124311
O7	O	1.042385	0.113793	0.139802
Zn8	Zn	0.926596	0.121315	0.154032
Zn9	Zn	0.935373	0.112050	-0.028328
O10	O	0.921357	0.242076	0.131633
C11	C	0.786891	0.122472	0.053124
C12	C	0.699399	0.120624	0.047217
C13	C	0.936769	-0.036391	0.063239
C14	C	0.935232	-0.129348	0.063129
C15	C	0.207311	0.109777	0.005813
C16	C	0.289518	0.111514	0.011374
C17	C	0.326982	0.116222	0.089602
C18	C	0.282235	0.119185	0.162274
C19	C	0.200030	0.117441	0.156712
C20	C	0.572448	0.121842	0.114327
C21	C	0.654658	0.123588	0.119884
C22	C	0.661936	0.115916	-0.031017
C23	C	0.579729	0.114178	-0.036572
C24	C	0.534990	0.117136	0.036100
N25	N	0.411010	0.118001	0.095289
N26	N	0.450964	0.115351	0.030413
C27	C	0.929583	-0.467098	0.062755
C28	C	1.016923	-0.443574	0.068962
C29	C	1.018598	-0.346911	0.068759
C30	C	0.932386	-0.299536	0.062941
C31	C	0.892517	-0.332751	-0.019043
C32	C	0.891469	-0.429547	-0.019177
C33	C	0.882109	-0.421412	0.138100
C34	C	0.885296	-0.324859	0.139360
C35	C	0.933966	-0.204837	0.063043
C36	C	0.928001	-0.561798	0.062648
C37	C	1.075078	0.110893	0.072578
C38	C	1.162570	0.112742	0.078479
C39	C	0.925201	0.269756	0.062463
C40	C	0.926737	0.362713	0.062568
N41	N	0.920612	0.127638	0.278488
N42	N	0.941364	0.105721	-0.152784
C43	C	0.972128	0.073073	0.325660
C44	C	0.967949	0.077503	0.412784
C45	C	0.912257	0.136504	0.452736
C46	C	0.860736	0.191071	0.405559
C47	C	0.864911	0.186636	0.318435
C48	C	0.894018	0.155854	0.712915
C49	C	0.889848	0.160286	0.800045
C50	C	0.997060	0.046717	0.807264
C51	C	1.001234	0.042290	0.720139
C52	C	0.949710	0.096855	0.672969
N53	N	0.907986	0.141036	0.541792
N54	N	0.953978	0.092318	0.583915
H55	H	0.176814	0.105949	-0.057889
H56	H	0.698372	0.113507	-0.090182
H57	H	0.685157	0.127428	0.183590
F58	F	0.914064	-0.454337	0.218813
F59	F	0.807980	-0.448995	-0.029519
F60	F	0.923178	-0.296611	0.218592
H61	H	1.046583	-0.005753	0.687612
F62	F	0.802745	-0.281635	0.140050
H63	H	0.829218	-0.301175	-0.026263
H64	H	0.817784	-0.435519	0.134293
F65	F	0.152414	0.120590	0.234054
H66	H	0.815386	0.239108	0.438092
F67	F	0.524841	0.125008	0.191672
H68	H	1.017481	0.025032	0.293137
F69	F	0.539864	0.109168	-0.119833
H70	H	1.053119	-0.475380	0.014860
H71	H	0.925676	-0.315611	-0.075815
F72	F	1.022777	0.019428	0.462988
F73	F	1.051891	-0.011353	0.857471
H74	H	0.325944	0.109095	-0.047799
F75	F	0.830570	0.223088	0.842559
H76	H	0.312745	0.123013	0.225969
H77	H	0.852066	0.200284	0.674516
F78	F	0.810078	0.244710	0.268233
H79	H	1.047865	-0.468616	0.127915
F80	F	1.059724	-0.318176	0.145838
F81	F	1.067137	-0.326518	-0.002390
H82	H	0.924559	-0.459297	-0.076218
