data_functionalizedCrystal
_audit_creation_method	'MofGen! by Chris Wilmer'
_symmetry_space_group_name_H-M	'P1'
_symmetry_Int_Tables_number	1
_symmetry_cell_setting	triclinic
loop_
_symmetry_equiv_pos_as_xyz
  x,y,z
_cell_length_a	19.805405
_cell_length_b	18.215407
_cell_length_c	18.215399
_cell_angle_alpha	89.980167
_cell_angle_beta	90.030610
_cell_angle_gamma	89.973142
loop_
_atom_site_label
_atom_site_type_symbol
_atom_site_fract_x
_atom_site_fract_y
_atom_site_fract_z
Zn1	Zn	-0.269462	-1.125064	0.416102
Zn2	Zn	-0.382653	-1.124969	0.293030
Zn3	Zn	-0.269484	-1.001997	0.293050
Zn4	Zn	-0.382615	-1.001959	0.416055
O5	O	-0.326054	-1.063497	0.354559
O6	O	-0.284484	-1.228036	0.399788
O7	O	-0.367666	-1.108633	0.190049
O8	O	-0.174765	-1.018377	0.309401
O9	O	-0.367644	-1.227966	0.309368
O10	O	-0.174748	-1.108794	0.399807
O11	O	-0.284521	-1.018285	0.190063
O12	O	-0.284485	-0.899008	0.309355
O13	O	-0.367580	-1.018313	0.519046
O14	O	-0.367602	-0.898980	0.399727
O15	O	-0.284447	-1.108758	0.519080
O16	O	-0.477365	-1.108596	0.309322
O17	O	-0.477337	-1.018221	0.399708
C18	C	-0.326042	-0.872291	0.354538
C19	C	-0.326053	-0.790492	0.354547
C20	C	-0.501910	-1.063415	0.354524
C21	C	-0.577142	-1.063446	0.354533
C22	C	-0.326007	-1.063542	0.546512
C23	C	-0.325987	-1.063561	0.628311
C24	C	-0.612478	-1.110550	0.307518
C25	C	-0.683166	-1.110582	0.307535
C26	C	-0.718517	-1.063505	0.354562
C27	C	-0.683176	-1.016399	0.401582
C28	C	-0.612489	-1.016372	0.401569
C29	C	-0.968249	-1.016507	0.401637
C30	C	-1.038941	-1.016536	0.401645
C31	C	-1.038927	-1.110717	0.307602
C32	C	-0.968239	-1.110690	0.307589
C33	C	-0.932905	-1.063587	0.354611
C34	C	-0.856256	-1.063555	0.354594
C35	C	-0.795164	-1.063533	0.354577
C36	C	-0.149511	-1.063601	0.354611
C37	C	-0.074279	-1.063645	0.354633
C38	C	-0.326066	-1.255450	0.354581
C39	C	-0.326071	-1.337249	0.354590
C40	C	-0.369400	-0.602303	0.401544
C41	C	-0.369403	-0.525444	0.401553
C42	C	-0.282719	-0.525444	0.307591
C43	C	-0.282714	-0.602301	0.307586
C44	C	-0.326059	-0.640729	0.354561
C45	C	-0.326066	-0.487013	0.354575
C46	C	-0.326068	-0.403679	0.354585
C47	C	-0.326056	-0.724068	0.354553
C48	C	-0.326051	-1.063495	0.163353
C49	C	-0.325880	-1.063619	0.081555
C50	C	-0.282659	-1.110673	0.816524
C51	C	-0.282639	-1.110682	0.893383
C52	C	-0.369210	-1.016502	0.893336
C53	C	-0.369226	-1.016490	0.816479
C54	C	-0.325952	-1.063580	0.778075
C55	C	-0.325916	-1.063600	0.931791
C56	C	-0.325895	-1.063609	1.015125
C57	C	-0.325972	-1.063570	0.694736
H58	H	-0.583700	-1.148883	0.269220
N59	N	-0.235990	-1.161462	0.775102
H60	H	-0.204630	-1.131573	0.743212
H61	H	-0.263561	-1.195534	0.743259
N62	N	-0.415892	-0.965726	0.934760
H63	H	-0.443320	-0.935890	0.898738
H64	H	-0.388336	-0.931688	0.966654
N65	N	-0.415926	-0.965688	0.775014
H66	H	-0.447302	-0.995569	0.743118
H67	H	-0.388377	-0.931602	0.743174
H68	H	-0.404693	-0.633589	0.439797
N69	N	-0.416156	-0.483999	0.452220
H70	H	-0.388695	-0.452138	0.486385
H71	H	-0.443603	-0.520054	0.481925
N72	N	-0.235955	-0.643744	0.256913
H73	H	-0.246403	-0.630346	0.204309
H74	H	-0.242544	-0.698251	0.264101
N75	N	-0.235982	-0.483994	0.256917
H76	H	-0.208523	-0.520001	0.227153
H77	H	-0.204694	-0.452128	0.286933
N78	N	-0.235938	-1.161466	0.934855
H79	H	-0.208526	-1.191291	0.898861
H80	H	-0.263477	-1.195514	0.966747
N81	N	-0.721280	-1.161386	0.256826
H82	H	-0.688159	-1.191201	0.227029
H83	H	-0.750654	-1.131458	0.222750
N84	N	-0.930109	-1.161468	0.256871
H85	H	-0.942451	-1.150080	0.204279
H86	H	-0.942380	-1.214027	0.268421
H87	H	-1.067722	-0.978202	0.439946
N88	N	-1.077037	-1.161521	0.256881
H89	H	-1.127182	-1.154399	0.264023
H90	H	-1.064634	-1.214071	0.268375
H91	H	-0.939485	-0.978153	0.439923
H92	H	-0.583719	-0.978016	0.439854
N93	N	-0.721301	-0.965624	0.452309
H94	H	-0.771443	-0.972786	0.445182
H95	H	-0.708990	-0.913067	0.440803
