data_functionalizedCrystal
_audit_creation_method	'MofGen! by Chris Wilmer'
_symmetry_space_group_name_H-M	'P1'
_symmetry_Int_Tables_number	1
_symmetry_cell_setting	triclinic
loop_
_symmetry_equiv_pos_as_xyz
  x,y,z
_cell_length_a	10.723022
_cell_length_b	10.723023
_cell_length_c	15.186229
_cell_angle_alpha	89.997261
_cell_angle_beta	89.996943
_cell_angle_gamma	84.467387
loop_
_atom_site_label
_atom_site_type_symbol
_atom_site_fract_x
_atom_site_fract_y
_atom_site_fract_z
O1	O	1.657187	0.175016	-0.073221
O2	O	1.294035	0.191772	-0.073224
O3	O	1.483988	0.001818	-0.073219
O4	O	1.467234	0.364970	-0.073226
O5	O	1.483975	0.001815	0.073239
O6	O	1.294022	0.191769	0.073234
O7	O	1.657174	0.175014	0.073236
Zn8	Zn	1.475596	0.183391	0.096488
Zn9	Zn	1.475613	0.183394	-0.096475
O10	O	1.467221	0.364967	0.073231
C11	C	1.247529	0.190551	0.000005
C12	C	1.108974	0.186904	0.000004
C13	C	0.890796	0.289421	-0.000000
C14	C	1.033998	0.293192	0.000001
C15	C	1.482763	-0.044683	0.000009
C16	C	1.479115	-0.183238	0.000006
C17	C	1.477496	-0.245002	-0.075864
C18	C	1.473726	-0.388205	-0.075869
C19	C	1.703681	0.176234	0.000006
C20	C	1.842235	0.179881	0.000002
C21	C	1.468446	0.411469	0.000002
C22	C	1.472094	0.550023	-0.000001
N23	N	1.475594	0.183388	0.228181
N24	N	1.475625	0.183388	-0.228168
C25	C	1.559734	0.099305	0.453906
C26	C	1.559738	0.099302	0.546096
C27	C	1.391476	0.267475	0.546100
C28	C	1.391467	0.267471	0.453912
C29	C	1.475603	0.183387	0.407818
C30	C	1.475616	0.183388	0.592195
C31	C	1.475619	0.183386	0.692151
C32	C	1.475598	0.183388	0.307855
H33	H	1.067171	0.093113	-0.000018
C34	C	1.652272	0.006806	0.403201
C35	C	1.602691	-0.089078	0.339834
C36	C	1.695229	-0.181583	0.289132
C37	C	1.837347	-0.178204	0.301799
C38	C	1.886936	-0.082317	0.365169
C39	C	1.794398	0.010188	0.415871
H40	H	1.497480	-0.091582	0.330455
H41	H	1.658519	-0.252565	0.242221
H42	H	1.905849	-0.246682	0.264266
H43	H	1.992147	-0.079812	0.374548
H44	H	1.831107	0.081170	0.462782
C45	C	1.652287	0.006814	0.596794
C46	C	1.744841	-0.085661	0.546090
C47	C	1.837393	-0.178154	0.596788
C48	C	1.837390	-0.178173	0.698191
C49	C	1.744833	-0.085696	0.748902
C50	C	1.652282	0.006798	0.698203
H51	H	1.744845	-0.085649	0.471020
H52	H	1.905909	-0.246612	0.559249
H53	H	1.905903	-0.246643	0.735722
H54	H	1.744829	-0.085707	0.823972
H55	H	1.583765	0.075256	0.735743
C56	C	1.298938	0.359974	0.596805
C57	C	1.299010	0.360058	0.698208
C58	C	1.206472	0.452563	0.748910
C59	C	1.113863	0.544983	0.698208
C60	C	1.113787	0.544903	0.596799
C61	C	1.206325	0.452398	0.546098
H62	H	1.367568	0.291639	0.735746
H63	H	1.206528	0.452622	0.823979
H64	H	1.045361	0.613461	0.735740
H65	H	1.045229	0.613321	0.559262
H66	H	1.206268	0.452339	0.471028
C67	C	1.090471	0.419902	-0.000001
C68	C	1.061224	0.513142	-0.076054
C69	C	1.117699	0.639855	-0.076057
C70	C	1.203420	0.673329	-0.000005
C71	C	1.232671	0.580087	0.076054
C72	C	1.176196	0.453373	0.076056
H73	H	0.997764	0.488364	-0.132357
H74	H	1.096045	0.708879	-0.132361
H75	H	1.245226	0.767130	-0.000007
H76	H	1.296131	0.604864	0.132357
H77	H	1.197850	0.384349	0.132360
C78	C	1.479397	-0.173226	-0.163615
C79	C	1.587110	-0.204241	-0.229493
C80	C	1.589013	-0.132468	-0.317247
C81	C	1.483202	-0.029681	-0.339122
C82	C	1.375480	0.001338	-0.273242
C83	C	1.373578	-0.070435	-0.185489
H84	H	1.665445	-0.280334	-0.213302
H85	H	1.668756	-0.155431	-0.366016
H86	H	1.484610	0.023449	-0.404082
H87	H	1.297145	0.077432	-0.289434
H88	H	1.293834	-0.047472	-0.136720
H89	H	1.473493	-0.396870	0.064958
C90	C	1.477218	-0.255011	0.087758
C91	C	1.366686	-0.331309	0.109631
C92	C	1.364790	-0.403078	0.197386
C93	C	1.473425	-0.398549	0.263269
C94	C	1.583965	-0.322249	0.241398
C95	C	1.585862	-0.250479	0.153642
H96	H	1.286261	-0.334663	0.060859
H97	H	1.282960	-0.459561	0.213576
H98	H	1.472020	-0.451677	0.328230
H99	H	1.664390	-0.318894	0.290169
H100	H	1.667691	-0.193996	0.137452
H101	H	0.906677	0.088892	-0.000002
H102	H	0.826353	0.380409	-0.000008
H103	H	1.472340	-0.441322	-0.140824
H104	H	1.322951	0.335941	0.416385
