data_functionalizedCrystal
_audit_creation_method	'MofGen! by Chris Wilmer'
_symmetry_space_group_name_H-M	'P1'
_symmetry_Int_Tables_number	1
_symmetry_cell_setting	triclinic
loop_
_symmetry_equiv_pos_as_xyz
  x,y,z
_cell_length_a	16.120297
_cell_length_b	14.908783
_cell_length_c	14.908178
_cell_angle_alpha	96.402596
_cell_angle_beta	89.407022
_cell_angle_gamma	89.410993
loop_
_atom_site_label
_atom_site_type_symbol
_atom_site_fract_x
_atom_site_fract_y
_atom_site_fract_z
Zn1	Zn	-0.525930	1.332447	-0.311284
Zn2	Zn	-0.025930	1.832447	0.188716
Zn3	Zn	-0.378884	1.332179	-0.454106
Zn4	Zn	0.121116	1.832179	0.045894
Zn5	Zn	-0.378897	1.189636	-0.311469
Zn6	Zn	0.121103	1.689636	0.188531
Zn7	Zn	-0.508899	1.173311	-0.470348
Zn8	Zn	-0.008899	1.673311	0.029652
O9	O	-0.448152	1.256893	-0.386802
O10	O	0.051848	1.756893	0.113198
O11	O	-0.513545	1.458666	-0.323354
O12	O	-0.013545	1.958666	0.176646
O13	O	-0.262940	1.319990	-0.428465
O14	O	0.237060	1.819990	0.071535
O15	O	-0.405534	1.215524	-0.185182
O16	O	0.094466	1.715524	0.314818
O17	O	-0.405511	1.458469	-0.428285
O18	O	0.094489	1.958469	0.071715
O19	O	-0.513558	1.320447	-0.185045
O20	O	-0.013558	1.820447	0.314955
O21	O	-0.262950	1.215264	-0.323671
O22	O	0.237050	1.715264	0.176329
O23	O	-0.389020	1.061216	-0.339420
O24	O	0.110980	1.561216	0.160580
O25	O	-0.627103	1.187701	-0.455968
O26	O	-0.127103	1.687701	0.044032
O27	O	-0.484532	1.049223	-0.456148
O28	O	0.015468	1.549223	0.043852
O29	O	-0.639616	1.304618	-0.339104
O30	O	-0.139616	1.804618	0.160896
O31	O	-0.388997	1.304162	-0.582524
O32	O	0.111003	1.804162	-0.082524
O33	O	-0.484519	1.187442	-0.594457
O34	O	0.015481	1.687442	-0.094457
C35	C	-0.434930	1.022483	-0.399567
C36	C	0.065070	1.522483	0.100433
C37	C	-0.429292	0.922199	-0.405052
C38	C	0.070708	1.422199	0.094948
C39	C	-0.531346	0.733939	-0.306259
C40	C	-0.031346	1.233939	0.193741
C41	C	-0.526051	0.639714	-0.311409
C42	C	-0.026051	1.139714	0.188591
C43	C	-0.413405	0.639520	-0.420495
C44	C	0.086595	1.139520	0.079505
C45	C	-0.418699	0.733746	-0.415346
C46	C	0.081301	1.233746	0.084654
C47	C	-0.477673	0.780952	-0.358227
C48	C	0.022327	1.280952	0.141773
C49	C	-0.482971	0.875179	-0.353082
C50	C	0.017029	1.375179	0.146918
C51	C	-0.370321	0.874985	-0.462163
C52	C	0.129679	1.374985	0.037837
C53	C	-0.365026	0.780759	-0.467313
C54	C	0.134974	1.280759	0.032687
C55	C	-0.664264	1.244368	-0.399327
C56	C	-0.164264	1.744368	0.100673
C57	C	-0.756357	1.239031	-0.404664
C58	C	-0.256357	1.739031	0.095336
C59	C	-0.924974	1.229254	-0.414390
C60	C	-0.424974	1.729254	0.085610
C61	C	-0.972208	1.284725	-0.358933
C62	C	-0.472208	1.784725	0.141067
C63	C	-1.066032	1.279285	-0.364345
C64	C	-0.566032	1.779285	0.135655
C65	C	-0.831141	1.234693	-0.408980
C66	C	-0.331141	1.734693	0.091020
C67	C	-0.232888	1.269425	-0.374258
C68	C	0.267112	1.769425	0.125742
C69	C	-0.140819	1.274951	-0.368657
C70	C	0.359181	1.774951	0.131343
C71	C	-0.434928	1.244025	-0.621228
C72	C	0.065072	1.744025	-0.121228
C73	C	-0.429303	1.238600	-0.721514
C74	C	0.070697	1.738600	-0.221514
C75	C	-0.461427	1.492219	-0.373987
C76	C	0.038573	1.992219	0.126013
C77	C	-0.467083	1.592501	-0.368526
C78	C	0.032917	2.092501	0.131474
C79	C	-0.531328	1.337569	-0.909681
C80	C	-0.031328	1.837569	-0.409681
C81	C	-0.526045	1.332476	-1.003909
C82	C	-0.026045	1.832476	-0.503909
C83	C	-0.413461	1.223315	-1.004199
C84	C	0.086539	1.723315	-0.504199
C85	C	-0.418743	1.228409	-0.909971
C86	C	0.081257	1.728409	-0.409971
C87	C	-0.477678	1.285539	-0.862716
C88	C	0.022322	1.785539	-0.362716
C89	C	-0.482955	1.290637	-0.768486
C90	C	0.017045	1.790637	-0.268486
C91	C	-0.370376	1.181472	-0.768779
C92	C	0.129624	1.681472	-0.268779
C93	C	-0.365093	1.176378	-0.863006
C94	C	0.134907	1.676378	-0.363006
C95	C	-0.461448	1.269836	-0.151460
C96	C	0.038552	1.769836	0.348540
C97	C	-0.467113	1.275351	-0.051171
C98	C	0.032887	1.775351	0.448829
H99	H	-0.326622	0.913272	-0.504486
H100	H	0.173378	1.413272	-0.004486
H101	H	-0.569756	0.601439	-0.269090
H102	H	-0.069756	1.101439	0.230910
Cl103	Cl	-0.339398	1.151477	-1.063623
Cl104	Cl	0.160602	1.651477	-0.563623
H105	H	-0.530941	1.337158	-0.730011
H106	H	-0.030941	1.837158	-0.230011
H107	H	-0.954998	1.177684	-0.465930
H108	H	-0.454998	1.677684	0.034070
Cl109	Cl	-0.339264	0.580161	-0.492284
Cl110	Cl	0.160736	1.080161	0.007716
Cl111	Cl	-0.925854	1.364374	-0.279374
Cl112	Cl	-0.425854	1.864374	0.220626
H113	H	-0.317009	0.742311	-0.513815
H114	H	0.182991	1.242311	-0.013815
H115	H	-0.579309	1.384094	-0.871204
H116	H	-0.079309	1.884094	-0.371204
Cl117	Cl	-0.593496	1.397886	-1.062949
Cl118	Cl	-0.093496	1.897886	-0.562949
H119	H	-0.326688	1.139107	-0.730528
H120	H	0.173312	1.639107	-0.230528
H121	H	-0.317113	1.129862	-0.901495
H122	H	0.182887	1.629862	-0.401495
H123	H	-0.530991	0.913613	-0.306574
H124	H	-0.030991	1.413613	0.193426
H125	H	-0.579368	0.772375	-0.259755
H126	H	-0.079368	1.272375	0.240245
