data_functionalizedCrystal
_audit_creation_method	'MofGen! by Chris Wilmer'
_symmetry_space_group_name_H-M	'P1'
_symmetry_Int_Tables_number	1
_symmetry_cell_setting	triclinic
loop_
_symmetry_equiv_pos_as_xyz
  x,y,z
_cell_length_a	16.120484
_cell_length_b	13.897449
_cell_length_c	13.897441
_cell_angle_alpha	90.020733
_cell_angle_beta	92.865635
_cell_angle_gamma	87.073220
loop_
_atom_site_label
_atom_site_type_symbol
_atom_site_fract_x
_atom_site_fract_y
_atom_site_fract_z
Zn1	Zn	-0.331852	-1.455182	-0.564824
Zn2	Zn	-0.081852	-1.205182	-0.314824
Zn3	Zn	0.168148	-0.955182	-0.064824
Zn4	Zn	0.418148	-0.705182	0.185176
Zn5	Zn	-0.471283	-1.446874	-0.411694
Zn6	Zn	-0.221283	-1.196874	-0.161694
Zn7	Zn	0.028717	-0.946874	0.088306
Zn8	Zn	0.278717	-0.696874	0.338306
Zn9	Zn	-0.331892	-1.293869	-0.403544
Zn10	Zn	-0.081892	-1.043869	-0.153544
Zn11	Zn	0.168108	-0.793869	0.096456
Zn12	Zn	0.418108	-0.543869	0.346456
Zn13	Zn	-0.471229	-1.285654	-0.572943
Zn14	Zn	-0.221229	-1.035654	-0.322943
Zn15	Zn	0.028771	-0.785654	-0.072943
Zn16	Zn	0.278771	-0.535654	0.177057
O17	O	-0.401564	-1.370395	-0.488251
O18	O	-0.151564	-1.120395	-0.238251
O19	O	0.098436	-0.870395	0.011749
O20	O	0.348436	-0.620395	0.261749
O21	O	-0.350354	-1.589061	-0.544523
O22	O	-0.100354	-1.339061	-0.294523
O23	O	0.149646	-1.089061	-0.044523
O24	O	0.399646	-0.839061	0.205477
O25	O	-0.452832	-1.426539	-0.275633
O26	O	-0.202832	-1.176539	-0.025633
O27	O	0.047168	-0.926539	0.224367
O28	O	0.297168	-0.676539	0.474367
O29	O	-0.215221	-1.322182	-0.418130
O30	O	0.034779	-1.072182	-0.168130
O31	O	0.284779	-0.822182	0.081870
O32	O	0.534779	-0.572182	0.331870
O33	O	-0.452794	-1.582958	-0.432019
O34	O	-0.202794	-1.332958	-0.182019
O35	O	0.047206	-1.082958	0.067981
O36	O	0.297206	-0.832958	0.317981
O37	O	-0.215191	-1.440698	-0.536621
O38	O	0.034809	-1.190698	-0.286621
O39	O	0.284809	-0.940698	-0.036621
O40	O	0.534809	-0.690698	0.213379
O41	O	-0.350422	-1.314126	-0.269646
O42	O	-0.100422	-1.064126	-0.019646
O43	O	0.149578	-0.814126	0.230354
O44	O	0.399578	-0.564126	0.480354
O45	O	-0.350369	-1.157798	-0.426003
O46	O	-0.100369	-0.907798	-0.176003
O47	O	0.149631	-0.657798	0.073997
O48	O	0.399631	-0.407798	0.323997
O49	O	-0.452700	-1.308182	-0.706846
O50	O	-0.202700	-1.058182	-0.456846
O51	O	0.047300	-0.808182	-0.206846
O52	O	0.297300	-0.558182	0.043154
O53	O	-0.452739	-1.151763	-0.550460
O54	O	-0.202739	-0.901763	-0.300460
O55	O	0.047261	-0.651763	-0.050460
O56	O	0.297261	-0.401763	0.199540
O57	O	-0.350301	-1.432733	-0.700880
O58	O	-0.100301	-1.182733	-0.450880
O59	O	0.149699	-0.932733	-0.200880
O60	O	0.399699	-0.682733	0.049120
O61	O	-0.587942	-1.418574	-0.439893
O62	O	-0.337942	-1.168574	-0.189893
O63	O	-0.087942	-0.918574	0.060107
O64	O	0.162058	-0.668574	0.310107
O65	O	-0.587901	-1.300126	-0.558362
O66	O	-0.337901	-1.050126	-0.308362
O67	O	-0.087901	-0.800126	-0.058362
O68	O	0.162099	-0.550126	0.191638
C69	C	-0.401553	-1.119781	-0.488229
C70	C	-0.151553	-0.869781	-0.238229
C71	C	0.098447	-0.619781	0.011771
C72	C	0.348447	-0.369781	0.261771
C73	C	-0.401568	-1.012566	-0.488243
C74	C	-0.151568	-0.762566	-0.238243
C75	C	0.098432	-0.512566	0.011757
C76	C	0.348432	-0.262566	0.261757
C77	C	-0.618172	-1.357583	-0.500914
C78	C	-0.368172	-1.107583	-0.250914
C79	C	-0.118172	-0.857583	-0.000914
C80	C	0.131828	-0.607583	0.249086
C81	C	-0.710837	-1.352190	-0.506363
C82	C	-0.460837	-1.102190	-0.256363
C83	C	-0.210837	-0.852190	-0.006363
C84	C	0.039163	-0.602190	0.243637
C85	C	-0.401490	-1.370468	-0.739840
C86	C	-0.151490	-1.120468	-0.489840
C87	C	0.098510	-0.870468	-0.239840
C88	C	0.348510	-0.620468	0.010160
C89	C	-0.401459	-1.370499	-0.847052
C90	C	-0.151459	-1.120499	-0.597052
C91	C	0.098541	-0.870499	-0.347052
C92	C	0.348541	-0.620499	-0.097052
C93	C	-0.880499	-1.342350	-0.516332
C94	C	-0.630499	-1.092350	-0.266332
C95	C	-0.380499	-0.842350	-0.016332
C96	C	-0.130499	-0.592350	0.233668
C97	C	-0.921788	-1.398613	-0.460186
C98	C	-0.671788	-1.148613	-0.210186
C99	C	-0.421788	-0.898613	0.039814
C100	C	-0.171788	-0.648613	0.289814
C101	C	-1.016194	-1.393137	-0.465733
C102	C	-0.766194	-1.143137	-0.215733
C103	C	-0.516194	-0.893137	0.034267
C104	C	-0.266194	-0.643137	0.284267
C105	C	-0.786085	-1.347824	-0.510787
C106	C	-0.536085	-1.097824	-0.260787
C107	C	-0.286085	-0.847824	-0.010787
C108	C	-0.036085	-0.597824	0.239213
C109	C	-0.184110	-1.383283	-0.475560
C110	C	0.065890	-1.133283	-0.225560
C111	C	0.315890	-0.883283	0.024440
C112	C	0.565890	-0.633283	0.274440
C113	C	-0.091444	-1.388775	-0.470152
C114	C	0.158556	-1.138775	-0.220152
C115	C	0.408556	-0.888775	0.029848
C116	C	0.658556	-0.638775	0.279848
C117	C	-0.401576	-1.621987	-0.488275
C118	C	-0.151576	-1.371987	-0.238275
C119	C	0.098424	-1.121987	0.011725
C120	C	0.348424	-0.871987	0.261725
C121	C	-0.401581	-1.729201	-0.488285
C122	C	-0.151581	-1.479201	-0.238285
C123	C	0.098419	-1.229201	0.011715
C124	C	0.348419	-0.979201	0.261715
C125	C	-0.401571	-0.816271	-0.488268
C126	C	-0.151571	-0.566271	-0.238268
C127	C	0.098429	-0.316271	0.011732
C128	C	0.348429	-0.066271	0.261732
C129	C	-0.401567	-0.925504	-0.488251
C130	C	-0.151567	-0.675504	-0.238251
C131	C	0.098433	-0.425504	0.011749
C132	C	0.348433	-0.175504	0.261749
C133	C	-0.401402	-1.370528	-1.043344
C134	C	-0.151402	-1.120528	-0.793344
C135	C	0.098598	-0.870528	-0.543344
C136	C	0.348598	-0.620528	-0.293344
C137	C	-0.401436	-1.370509	-0.934114
C138	C	-0.151436	-1.120509	-0.684114
C139	C	0.098564	-0.870509	-0.434114
C140	C	0.348564	-0.620509	-0.184114
C141	C	-0.401577	-1.370382	-0.237638
C142	C	-0.151577	-1.120382	0.012362
C143	C	0.098423	-0.870382	0.262362
C144	C	0.348423	-0.620382	0.512362
C145	C	-0.401374	-1.370551	-0.130412
C146	C	-0.151374	-1.120551	0.119588
C147	C	0.098626	-0.870551	0.369588
C148	C	0.348626	-0.620551	0.619588
H149	H	-0.886236	-1.450891	-0.407952
H150	H	-0.636236	-1.200891	-0.157952
H151	H	-0.386236	-0.950891	0.092048
H152	H	-0.136236	-0.700891	0.342048
H153	H	-0.916048	-1.290074	-0.568561
H154	H	-0.666048	-1.040074	-0.318561
H155	H	-0.416048	-0.790074	-0.068561
H156	H	-0.166048	-0.540074	0.181439
