data_functionalizedCrystal
_audit_creation_method	'MofGen! by Chris Wilmer'
_symmetry_space_group_name_H-M	'P1'
_symmetry_Int_Tables_number	1
_symmetry_cell_setting	triclinic
loop_
_symmetry_equiv_pos_as_xyz
  x,y,z
_cell_length_a	13.339070
_cell_length_b	15.995350
_cell_length_c	11.804365
_cell_angle_alpha	101.833003
_cell_angle_beta	74.875130
_cell_angle_gamma	99.560835
loop_
_atom_site_label
_atom_site_type_symbol
_atom_site_fract_x
_atom_site_fract_y
_atom_site_fract_z
O1	O	1.362724	0.407602	-0.099048
O2	O	1.862724	0.907602	0.400952
O3	O	1.068197	0.352506	-0.099044
O4	O	1.568197	0.852506	0.400956
O5	O	1.223511	0.260037	-0.099045
O6	O	1.723511	0.760037	0.400955
O7	O	1.207410	0.500071	-0.099047
O8	O	1.707410	1.000071	0.400953
O9	O	1.182623	0.284347	0.099011
O10	O	1.682623	0.784347	0.599011
O11	O	1.027308	0.376816	0.099012
O12	O	1.527308	0.876816	0.599012
O13	O	1.321836	0.431912	0.099008
O14	O	1.821836	0.931912	0.599008
Cu15	Cu	1.170839	0.406583	0.117094
Cu16	Cu	1.670839	0.906583	0.617094
Cu17	Cu	1.219194	0.377835	-0.117130
Cu18	Cu	1.719194	0.877835	0.382870
O19	O	1.166521	0.524381	0.099009
O20	O	1.666521	1.024381	0.599009
C21	C	1.010063	0.355354	-0.000015
C22	C	1.510063	0.855354	0.499985
C23	C	0.897761	0.327613	-0.000014
C24	C	1.397761	0.827613	0.499986
C25	C	0.532972	0.543314	-0.000035
C26	C	1.032972	1.043314	0.499965
C27	C	0.638486	0.569380	-0.000040
C28	C	1.138486	1.069380	0.499960
C29	C	0.703310	0.508941	-0.000033
C30	C	1.203310	1.008941	0.499967
C31	C	0.662610	0.422430	-0.000022
C32	C	1.162610	0.922430	0.499978
C33	C	0.557088	0.396360	-0.000026
C34	C	1.057088	0.896360	0.499974
C35	C	0.727425	0.361987	-0.000024
C36	C	1.227425	0.861987	0.499976
C37	C	0.686725	0.275476	-0.000013
C38	C	1.186725	0.775476	0.499987
C39	C	0.581213	0.249410	-0.000017
C40	C	1.081213	0.749410	0.499983
C41	C	0.516389	0.309850	-0.000024
C42	C	1.016389	0.809850	0.499976
C43	C	0.832947	0.388057	-0.000020
C44	C	1.332947	0.888057	0.499980
C45	C	0.857062	0.241103	-0.000012
C46	C	1.357062	0.741103	0.499988
C47	C	0.751549	0.215036	-0.000007
C48	C	1.251549	0.715036	0.499993
C49	C	1.202402	0.240842	-0.000019
C50	C	1.702402	0.740842	0.499981
C51	C	1.200408	0.147427	-0.000026
C52	C	1.700408	0.647427	0.499974
C53	C	1.193240	-0.191985	-0.000022
C54	C	1.693240	0.308015	0.499978
C55	C	1.082719	-0.170302	-0.000464
C56	C	1.582719	0.329698	0.499536
C57	C	1.084623	-0.073093	-0.000018
C58	C	1.584623	0.426907	0.499982
C59	C	1.196795	-0.023599	-0.000025
C60	C	1.696795	0.476401	0.499975
C61	C	1.228004	-0.038120	0.113072
C62	C	1.728004	0.461880	0.613072
C63	C	1.225206	-0.135389	0.113167
C64	C	1.725206	0.364611	0.613167
C65	C	1.273989	-0.162861	-0.112060
C66	C	1.773989	0.337139	0.387940
C67	C	1.274271	-0.066105	-0.113555
C68	C	1.774271	0.433895	0.386445
C69	C	1.198810	0.071567	-0.000022
C70	C	1.698810	0.571567	0.499978
C71	C	1.191227	-0.287149	-0.000016
C72	C	1.691227	0.212851	0.499984
C73	C	1.379970	0.429063	-0.000023
C74	C	1.879970	0.929063	0.499977
C75	C	1.492274	0.456804	-0.000032
C76	C	1.992274	0.956804	0.499968
C77	C	1.187631	0.543575	-0.000019
C78	C	1.687631	1.043575	0.499981
C79	C	1.189627	0.636989	-0.000020
C80	C	1.689627	1.136989	0.499980
N81	N	1.136835	0.426805	0.281835
N82	N	1.636835	0.926805	0.781835
N83	N	1.253205	0.357608	-0.281871
N84	N	1.753205	0.857608	0.218129
C85	C	1.334859	0.309033	0.655782
C86	C	1.834859	0.809033	1.155782
C87	C	1.360581	0.293731	0.531121
C88	C	1.860581	0.793731	1.031121
C89	C	1.304647	0.326998	0.468793
C90	C	1.804647	0.826998	0.968793
C91	C	1.222986	0.375570	0.531140
C92	C	1.722986	0.875570	1.031140
C93	C	1.197267	0.390878	0.655814
C94	C	1.697267	0.890878	1.155814
C95	C	1.167054	0.408844	0.468824
C96	C	1.667054	0.908844	0.968824
C97	C	1.085394	0.457415	0.531171
C98	C	1.585394	0.957415	1.031171
C99	C	1.059678	0.472721	0.655833
C100	C	1.559678	0.972721	1.155833
C101	C	1.115613	0.439454	0.718160
C102	C	1.615613	0.939454	1.218160
C103	C	1.192774	0.393535	0.344150
C104	C	1.692774	0.893535	0.844150
C105	C	1.055181	0.475380	0.344182
C106	C	1.555181	0.975380	0.844182
C107	C	1.029459	0.490682	0.468843
C108	C	1.529459	0.990682	0.968843
H109	H	0.718397	0.144597	-0.000007
H110	H	1.218397	0.644597	0.499993
O111	O	1.249569	-0.215123	-0.225634
O112	O	1.749569	0.284877	0.274366
H113	H	1.169891	-0.206176	-0.229652
H114	H	1.669891	0.293824	0.270348
O115	O	0.537307	0.156105	-0.000001
O116	O	1.037307	0.656105	0.499999
H117	H	0.600103	0.118457	0.000019
H118	H	1.100103	0.618457	0.500019
H119	H	0.909843	0.191887	-0.000011
H120	H	1.409843	0.691887	0.499989
H121	H	1.380399	0.281957	0.706538
H122	H	1.880399	0.781957	1.206538
H123	H	1.251655	-0.058393	-0.197221
H124	H	1.751655	0.441607	0.302779
H125	H	1.309546	-0.004333	0.117274
H126	H	1.809546	0.495667	0.617274
O127	O	1.448642	0.241339	0.463874
O128	O	1.948642	0.741339	0.963874
H129	H	1.483209	0.220769	0.528155
H130	H	1.983209	0.720769	1.028155
H131	H	1.058474	-0.064585	-0.081090
H132	H	1.558474	0.435415	0.418910
O133	O	1.149390	-0.158138	0.225154
O134	O	1.649390	0.341862	0.725154
H135	H	1.086138	-0.207658	0.200940
H136	H	1.586138	0.292342	0.700940
H137	H	1.055252	-0.209060	-0.081568
H138	H	1.555252	0.290940	0.418432
O139	O	1.280822	0.341125	0.276919
O140	O	1.780822	0.841125	0.776919
H141	H	1.289312	0.336065	0.179759
H142	H	1.789312	0.836065	0.679759
H143	H	1.325593	0.314538	0.367288
H144	H	1.825593	0.814538	0.867288
H145	H	0.430470	0.288631	-0.000019
H146	H	0.930470	0.788631	0.499981
O147	O	1.087873	0.455969	0.852622
O148	O	1.587873	0.955969	1.352622
H149	H	1.140491	0.424678	0.885481
H150	H	1.640491	0.924678	1.385481
H151	H	1.172735	-0.008211	0.197240
H152	H	1.672735	0.491789	0.697240
H153	H	1.022054	-0.190222	0.080189
H154	H	1.522054	0.309778	0.580189
O155	O	1.005246	-0.036249	0.107568
O156	O	1.505246	0.463751	0.607568
H157	H	0.965355	-0.087872	0.159486
H158	H	1.465355	0.412128	0.659486
O159	O	0.971647	0.525154	0.723085
O160	O	1.471647	1.025154	1.223085
H161	H	0.937080	0.545724	0.658806
H162	H	1.437080	1.045724	1.158806
O163	O	1.382223	-0.179961	-0.113070
O164	O	1.882223	0.320039	0.386930
H165	H	1.434957	-0.118483	-0.110157
H166	H	1.934957	0.381517	0.389843
O167	O	1.331362	-0.152290	0.119987
O168	O	1.831362	0.347710	0.619987
H169	H	1.384465	-0.091015	0.123213
H170	H	1.884465	0.408985	0.623213
H171	H	1.357482	-0.032578	-0.120388
H172	H	1.857482	0.467422	0.379612
H173	H	0.962970	0.530230	0.519622
H174	H	1.462970	1.030230	1.019622
O175	O	0.463059	0.608499	-0.000032
O176	O	0.963059	1.108499	0.499968
H177	H	0.382849	0.575836	-0.000024
H178	H	0.882849	1.075836	0.499976
H179	H	1.009636	0.502471	0.293435
H180	H	1.509636	1.002471	0.793435
H181	H	0.789224	0.530169	-0.000040
H182	H	1.289224	1.030169	0.499960
O183	O	0.876828	0.481362	-0.000016
O184	O	1.376828	0.981362	0.499984
H185	H	0.940987	0.486854	-0.080742
H186	H	1.440987	0.986854	0.419258
O187	O	0.682381	0.662684	-0.000025
O188	O	1.182381	1.162684	0.499975
H189	H	0.619577	0.700335	-0.000011
H190	H	1.119577	1.200335	0.499989
