data_functionalizedCrystal
_audit_creation_method	'MofGen! by Chris Wilmer'
_symmetry_space_group_name_H-M	'P1'
_symmetry_Int_Tables_number	1
_symmetry_cell_setting	triclinic
loop_
_symmetry_equiv_pos_as_xyz
  x,y,z
_cell_length_a	10.654545
_cell_length_b	14.519709
_cell_length_c	13.596369
_cell_angle_alpha	90.005722
_cell_angle_beta	89.993068
_cell_angle_gamma	84.081612
loop_
_atom_site_label
_atom_site_type_symbol
_atom_site_fract_x
_atom_site_fract_y
_atom_site_fract_z
O1	O	1.666579	0.129514	0.081784
O2	O	2.166579	0.629514	0.581784
O3	O	1.300981	0.141859	0.081788
O4	O	1.800981	0.641859	0.581788
O5	O	1.493473	0.001499	0.081777
O6	O	1.993473	0.501499	0.581777
O7	O	1.474087	0.269875	0.081795
O8	O	1.974087	0.769875	0.581795
O9	O	1.493497	0.001491	-0.081806
O10	O	1.993497	0.501491	0.418194
O11	O	1.301005	0.141852	-0.081795
O12	O	1.801005	0.641852	0.418205
O13	O	1.666603	0.129507	-0.081799
O14	O	2.166603	0.629507	0.418201
Zn15	Zn	1.483808	0.135678	-0.107769
Zn16	Zn	1.983808	0.635678	0.392231
Zn17	Zn	1.483776	0.135688	0.107758
Zn18	Zn	1.983776	0.635688	0.607758
O19	O	1.474110	0.269868	-0.081788
O20	O	1.974110	0.769868	0.418212
C21	C	1.254204	0.140950	-0.000003
C22	C	1.754204	0.640950	0.499997
C23	C	1.114786	0.138241	-0.000001
C24	C	1.614786	0.638241	0.499999
C25	C	1.049307	0.136961	-0.089171
C26	C	1.549307	0.636961	0.410829
C27	C	0.918312	0.134400	-0.089171
C28	C	1.418312	0.634400	0.410829
C29	C	0.918287	0.134402	0.089176
C30	C	1.418287	0.634402	0.589176
C31	C	1.049280	0.136957	0.089175
C32	C	1.549280	0.636957	0.589175
C33	C	1.492582	-0.032870	-0.000014
C34	C	1.992582	0.467130	0.499986
C35	C	1.489874	-0.135265	-0.000015
C36	C	1.989874	0.364735	0.499985
C37	C	1.479907	-0.510212	0.000011
C38	C	1.979907	-0.010212	0.500011
C39	C	1.482675	-0.405890	0.000003
C40	C	1.982675	0.094110	0.500003
C41	C	1.484890	-0.322742	-0.000003
C42	C	1.984890	0.177258	0.499997
C43	C	1.487659	-0.218413	-0.000009
C44	C	1.987659	0.281587	0.499991
C45	C	1.713380	0.130416	-0.000006
C46	C	2.213380	0.630416	0.499994
C47	C	1.852798	0.133125	-0.000001
C48	C	2.352798	0.633125	0.499999
C49	C	1.475002	0.304236	0.000006
C50	C	1.975002	0.804236	0.500006
C51	C	1.477710	0.406631	0.000013
C52	C	1.977710	0.906631	0.500013
N53	N	1.483756	0.135688	0.254850
N54	N	1.983756	0.635688	0.754850
N55	N	1.483838	0.135671	-0.254861
N56	N	1.983838	0.635671	0.245139
C57	C	1.483760	0.135689	0.343848
C58	C	1.983760	0.635689	0.843848
C59	C	1.483778	0.135687	0.455499
C60	C	1.983778	0.635687	0.955499
C61	C	1.483800	0.135681	0.544490
C62	C	1.983800	0.635681	1.044490
C63	C	1.483817	0.135677	0.656149
C64	C	1.983817	0.635677	1.156149
H65	H	0.865004	0.133359	-0.161782
H66	H	1.365004	0.633359	0.338218
H67	H	1.102638	0.138007	-0.161784
H68	H	1.602638	0.638007	0.338216
H69	H	0.864936	0.133358	0.161780
H70	H	1.364936	0.633358	0.661780
F71	F	1.118973	0.138313	0.184087
F72	F	1.618973	0.638313	0.684087
