data_functionalizedCrystal
_audit_creation_method	'MofGen! by Chris Wilmer'
_symmetry_space_group_name_H-M	'P1'
_symmetry_Int_Tables_number	1
_symmetry_cell_setting	triclinic
loop_
_symmetry_equiv_pos_as_xyz
  x,y,z
_cell_length_a	13.330367
_cell_length_b	16.992694
_cell_length_c	16.992695
_cell_angle_alpha	89.331777
_cell_angle_beta	89.995081
_cell_angle_gamma	89.998159
loop_
_atom_site_label
_atom_site_type_symbol
_atom_site_fract_x
_atom_site_fract_y
_atom_site_fract_z
O1	O	0.083299	-1.050854	0.166905
O2	O	0.583299	-0.550854	0.666905
O3	O	0.083328	-0.822454	0.165074
O4	O	0.583328	-0.322454	0.665074
O5	O	0.083306	-0.935738	0.051790
O6	O	0.583306	-0.435738	0.551790
O7	O	0.083321	-0.937570	0.280190
O8	O	0.583321	-0.437570	0.780190
O9	O	-0.083541	-0.935721	0.051808
O10	O	0.416459	-0.435721	0.551808
O11	O	-0.083519	-0.822437	0.165092
O12	O	0.416481	-0.322437	0.665092
O13	O	-0.083548	-1.050837	0.166924
O14	O	0.416452	-0.550837	0.666924
Cu15	Cu	-0.098768	-0.936635	0.166010
Cu16	Cu	0.401232	-0.436635	0.666010
Cu17	Cu	0.098548	-0.936655	0.165988
Cu18	Cu	0.598548	-0.436655	0.665988
O19	O	-0.083526	-0.937552	0.280208
O20	O	0.416474	-0.437552	0.780208
C21	C	-0.000092	-0.793085	0.162727
C22	C	0.499908	-0.293085	0.662727
C23	C	-0.000081	-0.705600	0.155699
C24	C	0.499919	-0.205600	0.655699
C25	C	-0.000118	-0.933374	0.022439
C26	C	0.499882	-0.433374	0.522439
C27	C	-0.000116	-0.926345	-0.065046
C28	C	0.499884	-0.426345	0.434954
N29	N	-0.237550	-0.936626	0.166025
N30	N	0.262450	-0.436626	0.666025
C31	C	-0.710165	-0.987399	0.216738
C32	C	-0.210165	-0.487399	0.716738
C33	C	-0.710148	-0.885934	0.115208
C34	C	-0.210148	-0.385934	0.615208
C35	C	-0.605130	-0.885923	0.115220
C36	C	-0.105130	-0.385923	0.615220
C37	C	-0.552624	-0.936652	0.165990
C38	C	-0.052624	-0.436652	0.665990
C39	C	-0.605137	-0.987391	0.216749
C40	C	-0.105137	-0.487391	0.716749
C41	C	-0.552609	-0.835191	0.064456
C42	C	-0.052609	-0.335191	0.564456
C43	C	-0.447584	-0.835179	0.064465
C44	C	0.052416	-0.335179	0.564465
C45	C	-0.395077	-0.885904	0.115240
C46	C	0.104923	-0.385904	0.615240
C47	C	-0.447596	-0.936644	0.166002
C48	C	0.052404	-0.436644	0.666002
C49	C	-0.395091	-0.987373	0.216772
C50	C	0.104909	-0.487373	0.716772
C51	C	-0.447608	-1.038110	0.267538
C52	C	0.052392	-0.538110	0.767538
C53	C	-0.552630	-1.038116	0.267524
C54	C	-0.052630	-0.538116	0.767524
C55	C	-0.290055	-0.885898	0.115254
C56	C	0.209945	-0.385898	0.615254
C57	C	-0.290062	-0.987365	0.216783
C58	C	0.209938	-0.487365	0.716783
N59	N	0.237329	-0.936670	0.165967
N60	N	0.737329	-0.436670	0.665967
C61	C	-0.000126	-1.080205	0.169270
C62	C	0.499874	-0.580205	0.669270
C63	C	-0.000131	-1.167690	0.176299
C64	C	0.499869	-0.667690	0.676299
C65	C	-0.000077	-0.659610	0.223517
C66	C	0.499923	-0.159610	0.723517
C67	C	-0.000091	-0.577409	0.216908
C68	C	0.499909	-0.077409	0.716908
C69	C	-0.000102	-0.541201	0.142480
C70	C	0.499898	-0.041201	0.642480
C71	C	-0.000109	-0.587198	0.074657
C72	C	0.499891	-0.087198	0.574657
C73	C	-0.000102	-0.669397	0.081267
C74	C	0.499898	-0.169397	0.581267
C75	C	-0.000131	-0.295886	0.115086
C76	C	0.499869	0.204114	0.615086
C77	C	-0.000135	-0.213681	0.108481
C78	C	0.499865	0.286319	0.608481
C79	C	-0.000119	-0.203898	0.250732
C80	C	0.499881	0.296102	0.750732
C81	C	-0.000106	-0.286099	0.257336
C82	C	0.499894	0.213901	0.757336
C83	C	-0.000118	-0.332089	0.189512
C84	C	0.499882	0.167911	0.689512
N85	N	-0.000113	-0.457178	0.135723
N86	N	0.499887	0.042822	0.635723
N87	N	-0.000113	-0.416110	0.196270
N88	N	0.499887	0.083890	0.696270
C89	C	-0.000126	-0.994163	-0.111037
C90	C	0.499874	-0.494163	0.388963
C91	C	-0.000116	-0.987554	-0.193238
C92	C	0.499884	-0.487554	0.306762
C93	C	-0.000103	-0.913127	-0.229446
C94	C	0.499897	-0.413127	0.270554
C95	C	-0.000090	-0.845303	-0.183449
C96	C	0.499910	-0.345303	0.316551
C97	C	-0.000093	-0.851913	-0.101250
C98	C	0.499907	-0.351913	0.398750
C99	C	-0.000085	-0.885732	-0.474760
C100	C	0.499915	-0.385732	0.025240
C101	C	-0.000085	-0.879127	-0.556966
C102	C	0.499915	-0.379127	-0.056966
C103	C	-0.000109	-1.021379	-0.566749
C104	C	0.499891	-0.521379	-0.066749
C105	C	-0.000118	-1.027982	-0.484547
C106	C	0.499882	-0.527982	0.015453
C107	C	-0.000100	-0.960159	-0.438558
C108	C	0.499900	-0.460159	0.061442
N109	N	-0.000095	-0.906369	-0.313468
N110	N	0.499905	-0.406369	0.186532
N111	N	-0.000101	-0.966917	-0.354537
N112	N	0.499899	-0.466917	0.145463
C113	C	-0.000100	-0.939917	0.309559
C114	C	0.499900	-0.439917	0.809559
C115	C	-0.000095	-0.946945	0.397044
C116	C	0.499905	-0.446945	0.897044
H117	H	-0.247320	-1.028672	0.258131
H118	H	0.252680	-0.528672	0.758131
F119	F	-0.766057	-1.041389	0.270768
F120	F	-0.266057	-0.541389	0.770768
F121	F	-0.000150	-1.073380	-0.072509
F122	F	0.499850	-0.573380	0.427491
F123	F	-0.391716	-1.092102	0.321565
F124	F	0.108284	-0.592102	0.821565
F125	F	-0.000127	-0.548660	-0.004555
F126	F	0.499873	-0.048660	0.495445
H127	H	-0.752904	-0.844638	0.073869
H128	H	-0.252904	-0.344638	0.573869
F129	F	-0.000089	-0.324628	0.336551
F130	F	0.499911	0.175372	0.836551
F131	F	-0.000109	-0.718344	0.009085
F132	F	0.499891	-0.218344	0.509085
F133	F	-0.000128	-1.059736	-0.242181
F134	F	0.499872	-0.559736	0.257819
F135	F	-0.608494	-0.781206	0.010427
F136	F	-0.108494	-0.281206	0.510427
H137	H	-0.595398	-1.079425	0.308853
H138	H	-0.095398	-0.579425	0.808853
H139	H	-0.000129	-1.088589	-0.455073
H140	H	0.499871	-0.588589	0.044927
H141	H	-0.000122	-1.076596	-0.604202
H142	H	0.499878	-0.576596	-0.104202
H143	H	-0.404833	-0.793865	0.023129
H144	H	0.095167	-0.293865	0.523129
H145	H	-0.000091	-0.818516	-0.586443
H146	H	0.499909	-0.318516	-0.086443
F147	F	-0.000058	-0.698138	0.302733
F148	F	0.499942	-0.198138	0.802733
F149	F	-0.000108	-0.154947	0.322909
F150	F	0.499892	0.345053	0.822909
F151	F	-0.000064	-0.813548	-0.425825
F152	F	0.499936	-0.313548	0.074175
F153	F	-0.234167	-0.831915	0.061218
F154	F	0.265833	-0.331915	0.561218
F155	F	-0.000065	-0.766091	-0.221987
F156	F	0.499935	-0.266091	0.278013
F157	F	-0.000082	-0.528465	0.289090
F158	F	0.499918	-0.028465	0.789090
H159	H	-0.000085	-0.796688	-0.063804
H160	H	0.499915	-0.296688	0.436196
H161	H	-0.000143	-0.184203	0.047870
H162	H	0.499857	0.315797	0.547870
H163	H	-0.000141	-0.333322	0.059859
H164	H	0.499859	0.166678	0.559859
