data_functionalizedCrystal
_audit_creation_method	'MofGen! by Chris Wilmer'
_symmetry_space_group_name_H-M	'P1'
_symmetry_Int_Tables_number	1
_symmetry_cell_setting	triclinic
loop_
_symmetry_equiv_pos_as_xyz
  x,y,z
_cell_length_a	16.992694
_cell_length_b	9.065218
_cell_length_c	8.140239
_cell_angle_alpha	90.001686
_cell_angle_beta	90.002898
_cell_angle_gamma	92.157946
loop_
_atom_site_label
_atom_site_type_symbol
_atom_site_fract_x
_atom_site_fract_y
_atom_site_fract_z
O1	O	1.042613	-0.313082	-0.136397
O2	O	1.542613	0.186918	0.363603
O3	O	0.814303	-0.309648	-0.136445
O4	O	1.314303	0.190352	0.363555
O5	O	0.933177	-0.097160	-0.136417
O6	O	1.433177	0.402840	0.363583
O7	O	0.923739	-0.525570	-0.136425
O8	O	1.423739	-0.025570	0.363575
O9	O	0.933170	-0.097157	0.136810
O10	O	1.433170	0.402843	0.636810
O11	O	0.814297	-0.309644	0.136782
O12	O	1.314297	0.190356	0.636782
O13	O	1.042606	-0.313079	0.136830
O14	O	1.542606	0.186921	0.636830
Zn15	Zn	0.928450	-0.311361	0.180187
Zn16	Zn	1.428450	0.188639	0.680187
Zn17	Zn	0.928459	-0.311366	-0.179802
Zn18	Zn	1.428459	0.188634	0.320198
O19	O	0.923732	-0.525566	0.136802
O20	O	1.423732	-0.025566	0.636802
C21	C	0.785056	-0.305227	0.000162
C22	C	1.285056	0.194773	0.500162
C23	C	0.697918	-0.292043	0.000143
C24	C	1.197918	0.207957	0.500143
C25	C	0.648581	-0.419249	0.000142
C26	C	1.148581	0.080751	0.500142
C27	C	0.566706	-0.406853	0.000165
C28	C	1.066706	0.093147	0.500165
C29	C	0.534170	-0.267249	0.000177
C30	C	1.034170	0.232751	0.500177
C31	C	0.583514	-0.140034	0.000184
C32	C	1.083514	0.359966	0.500184
C33	C	0.665387	-0.152432	0.000173
C34	C	1.165387	0.347568	0.500173
C35	C	0.290208	-0.215866	0.000222
C36	C	0.790208	0.284134	0.500222
C37	C	0.208328	-0.203477	0.000229
C38	C	0.708328	0.296523	0.500229
C39	C	0.191526	-0.470298	0.000213
C40	C	0.691526	0.029702	0.500213
C41	C	0.273402	-0.482683	0.000192
C42	C	0.773402	0.017317	0.500192
C43	C	0.322738	-0.355468	0.000207
C44	C	0.822738	0.144532	0.500207
N45	N	0.450482	-0.254575	0.000196
N46	N	0.950482	0.245425	0.500196
N47	N	0.406425	-0.368144	0.000200
N48	N	0.906425	0.131856	0.500200
C49	C	0.932267	-0.042088	0.000194
C50	C	1.432267	0.457912	0.500194
C51	C	0.929555	0.122007	0.000186
C52	C	1.429555	0.622007	0.500186
C53	C	1.071853	-0.317499	0.000220
C54	C	1.571853	0.182501	0.500220
C55	C	1.158991	-0.330683	0.000227
C56	C	1.658991	0.169317	0.500227
C57	C	0.924643	-0.580639	0.000187
C58	C	1.424643	-0.080639	0.500187
C59	C	0.927355	-0.744733	0.000185
C60	C	1.427355	-0.244733	0.500185
N61	N	0.928450	-0.311358	0.425869
N62	N	1.428450	0.188642	0.925869
N63	N	0.928465	-0.311358	-0.425484
N64	N	1.428465	0.188642	0.074516
H65	H	0.705557	-0.048847	0.000173
H66	H	1.205557	0.451153	0.500173
Br67	Br	0.357154	-0.043214	0.000247
Br68	Br	0.857154	0.456786	0.500247
Br69	Br	0.692728	-0.608721	0.000108
Br70	Br	1.192728	-0.108721	0.500108
H71	H	0.557017	-0.026365	0.000217
H72	H	1.057017	0.473635	0.500217
H73	H	0.526539	-0.510438	0.000162
H74	H	1.026539	-0.010438	0.500162
H75	H	0.299886	-0.596363	0.000163
H76	H	0.799886	-0.096363	0.500163
H77	H	0.181841	-0.089790	0.000237
H78	H	0.681841	0.410210	0.500237
H79	H	0.151349	-0.573869	0.000204
H80	H	0.651349	-0.073869	0.500204
