data_functionalizedCrystal
_audit_creation_method	'MofGen! by Chris Wilmer'
_symmetry_space_group_name_H-M	'P1'
_symmetry_Int_Tables_number	1
_symmetry_cell_setting	triclinic
loop_
_symmetry_equiv_pos_as_xyz
  x,y,z
_cell_length_a	17.699077
_cell_length_b	17.699092
_cell_length_c	14.048226
_cell_angle_alpha	89.995250
_cell_angle_beta	89.994095
_cell_angle_gamma	83.283472
loop_
_atom_site_label
_atom_site_type_symbol
_atom_site_fract_x
_atom_site_fract_y
_atom_site_fract_z
O1	O	1.004083	0.095691	-0.079144
O2	O	0.783705	0.108148	-0.079149
O3	O	0.900117	-0.008269	-0.079144
O4	O	0.887671	0.212108	-0.079149
O5	O	0.900103	-0.008276	0.079177
O6	O	0.783691	0.108141	0.079173
O7	O	1.004069	0.095684	0.079177
Zn8	Zn	0.893878	0.101912	0.104312
Zn9	Zn	0.893896	0.101921	-0.104283
O10	O	0.887657	0.212102	0.079173
C11	C	0.755501	0.107699	0.000011
C12	C	0.671482	0.106362	0.000010
C13	C	0.632007	0.105729	0.086312
C14	C	0.553065	0.104461	0.086313
C15	C	0.513598	0.103831	0.000011
C16	C	0.553079	0.104463	-0.086298
C17	C	0.632021	0.105726	-0.086298
C18	C	0.234715	0.099369	-0.086300
C19	C	0.155768	0.098109	-0.086293
C20	C	0.155759	0.098104	0.086311
C21	C	0.234701	0.099367	0.086311
C22	C	0.274176	0.099994	0.000003
C23	C	0.359774	0.101368	0.000003
C24	C	0.428000	0.102463	0.000010
C25	C	0.899663	-0.036470	0.000015
C26	C	0.898322	-0.120487	0.000011
C27	C	0.897701	-0.159951	-0.086291
C28	C	0.896436	-0.238894	-0.086293
C29	C	0.895798	-0.278373	0.000009
C30	C	0.896416	-0.238903	0.086318
C31	C	0.897676	-0.159961	0.086318
C32	C	0.891336	-0.557268	0.086319
C33	C	0.890078	-0.636216	0.086312
C34	C	0.890097	-0.636201	-0.086292
C35	C	0.891356	-0.557259	-0.086291
C36	C	0.891970	-0.517796	0.000017
C37	C	0.893341	-0.432197	0.000017
C38	C	0.894433	-0.363971	0.000010
C39	C	1.032274	0.096133	0.000015
C40	C	1.116292	0.097470	0.000010
C41	C	0.888111	0.240302	0.000011
C42	C	0.889452	0.324320	0.000009
N43	N	0.893871	0.101905	0.246672
N44	N	0.893909	0.101921	-0.246644
C45	C	0.945434	0.050377	0.296492
C46	C	0.945440	0.050376	0.396150
C47	C	0.893884	0.101908	0.445986
C48	C	0.842315	0.153439	0.396159
C49	C	0.842307	0.153435	0.296503
C50	C	0.842337	0.153445	0.603873
C51	C	0.842346	0.153450	0.703536
C52	C	0.945469	0.050385	0.703520
C53	C	0.945461	0.050382	0.603864
C54	C	0.893893	0.101914	0.554044
H55	H	0.123636	0.097596	-0.156575
H56	H	0.898226	-0.127814	-0.156569
H57	H	0.895891	-0.271052	0.156586
H58	H	0.987445	0.008424	0.563288
C59	C	1.002188	-0.006305	0.758318
H60	H	0.994803	0.001069	0.824806
H61	H	1.052682	0.001850	0.741975
H62	H	0.994056	-0.056810	0.741991
H63	H	0.800318	0.195394	0.255941
C64	C	0.785581	0.210103	0.450971
H65	H	0.754860	0.240779	0.407024
H66	H	0.812727	0.241586	0.489849
H67	H	0.754138	0.182890	0.489844
C68	C	0.675416	0.106407	0.181245
H69	H	0.640598	0.105837	0.232643
H70	H	0.700362	0.151014	0.184846
H71	H	0.712060	0.062770	0.184822
H72	H	0.800363	0.195412	0.744107
H73	H	0.520939	0.103945	-0.156566
H74	H	0.987420	0.008416	0.255923
C75	C	0.509645	0.103770	0.181245
H76	H	0.544454	0.104336	0.232642
H77	H	0.484704	0.059158	0.184842
H78	H	0.472994	0.147402	0.184826
C79	C	0.889367	-0.679644	0.181246
H80	H	0.888537	-0.732311	0.168881
H81	H	0.845448	-0.660858	0.216701
H82	H	0.933692	-0.672563	0.216715
C83	C	0.892025	-0.513870	0.181254
H84	H	0.891474	-0.548692	0.232649
H85	H	0.848398	-0.477220	0.184851
H86	H	0.936642	-0.488931	0.184839
H87	H	0.664160	0.106243	-0.156574
C88	C	0.278126	0.100068	-0.181234
H89	H	0.243312	0.099522	-0.232629
H90	H	0.314776	0.056442	-0.184827
H91	H	0.303065	0.144686	-0.184823
C92	C	0.898360	-0.116551	0.181250
H93	H	0.897806	-0.151369	0.232649
H94	H	0.854732	-0.079903	0.184836
H95	H	0.942976	-0.091610	0.184839
H96	H	0.891880	-0.525120	-0.156567
H97	H	0.266831	0.099883	0.156587
H98	H	0.800342	0.195405	0.563313
H99	H	0.987426	0.008417	0.436713
H100	H	0.123610	0.097590	0.156587
H101	H	0.895934	-0.271022	-0.156568
C102	C	0.889410	-0.679611	-0.181230
H103	H	0.888559	-0.732279	-0.168875
H104	H	0.933739	-0.672526	-0.216689
H105	H	0.845496	-0.660814	-0.216690
