data_functionalizedCrystal
_audit_creation_method	'MofGen! by Chris Wilmer'
_symmetry_space_group_name_H-M	'P1'
_symmetry_Int_Tables_number	1
_symmetry_cell_setting	triclinic
loop_
_symmetry_equiv_pos_as_xyz
  x,y,z
_cell_length_a	14.853566
_cell_length_b	27.731996
_cell_length_c	13.330367
_cell_angle_alpha	89.989375
_cell_angle_beta	89.995295
_cell_angle_gamma	83.127901
loop_
_atom_site_label
_atom_site_type_symbol
_atom_site_fract_x
_atom_site_fract_y
_atom_site_fract_z
O1	O	1.195321	0.063105	-0.083371
O2	O	0.932736	0.070624	-0.083389
O3	O	1.072208	-0.003496	-0.083358
O4	O	1.055849	0.137225	-0.083402
O5	O	1.072188	-0.003498	0.083489
O6	O	0.932716	0.070622	0.083458
O7	O	1.195301	0.063104	0.083476
Cu8	Cu	1.064007	0.066863	0.098702
Cu9	Cu	1.064031	0.066865	-0.098614
O10	O	1.055829	0.137223	0.083445
C11	C	0.899143	0.070282	0.000033
C12	C	0.799077	0.069262	0.000027
C13	C	0.375974	0.064946	-0.090903
C14	C	0.375974	0.064945	0.091000
C15	C	0.469992	0.065903	0.090997
C16	C	0.517005	0.066384	0.000042
C17	C	0.470001	0.065906	-0.090909
C18	C	0.517002	0.066386	0.181947
C19	C	0.611026	0.067344	0.181947
C20	C	0.658042	0.067822	0.090991
C21	C	0.611032	0.067343	0.000036
C22	C	0.658045	0.067824	-0.090919
C23	C	0.611038	0.067342	-0.181875
C24	C	0.517017	0.066383	-0.181865
C25	C	0.752063	0.068781	0.090981
C26	C	0.752072	0.068784	-0.090925
C27	C	1.071862	-0.021506	0.000069
C28	C	1.070850	-0.075167	0.000079
C29	C	1.064493	-0.407912	-0.090918
C30	C	1.060649	-0.609588	-0.090936
O31	O	1.060122	-0.635660	-0.168285
N32	N	1.060160	-0.634808	0.000011
C33	C	1.060627	-0.609606	0.090970
O34	O	1.060114	-0.635684	0.168326
C35	C	1.064464	-0.407930	0.090986
C36	C	1.064962	-0.382713	0.000033
C37	C	1.064989	-0.382695	-0.181864
C38	C	1.065955	-0.332279	-0.181859
C39	C	1.066424	-0.307080	-0.090908
C40	C	1.065928	-0.332298	0.000038
C41	C	1.064925	-0.382729	0.181944
C42	C	1.065882	-0.332306	0.181940
C43	C	1.066379	-0.307089	0.090987
C44	C	1.067363	-0.256683	0.090995
N45	N	1.067851	-0.231463	0.000048
C46	C	1.067382	-0.256662	-0.090904
C47	C	1.058614	-0.715489	0.090954
C48	C	1.057657	-0.765908	0.090950
C49	C	1.057677	-0.765886	-0.090956
C50	C	1.058641	-0.715467	-0.090951
C51	C	1.059103	-0.690269	0.000007
C52	C	1.069411	-0.150785	-0.090885
C53	C	1.070381	-0.100365	-0.090872
C54	C	1.070356	-0.100391	0.091034
C55	C	1.069391	-0.150807	0.091021
C56	C	1.068916	-0.176002	0.000053
O57	O	1.067880	-0.230579	0.168303
O58	O	1.067875	-0.230573	-0.168248
C59	C	1.063527	-0.458328	-0.090924
C60	C	1.063030	-0.483545	0.000022
C61	C	1.063500	-0.458346	0.090974
C62	C	1.062073	-0.533964	0.000018
C63	C	1.061603	-0.559162	-0.090933
C64	C	1.062091	-0.533942	-0.181881
C65	C	1.063057	-0.483526	-0.181875
C66	C	1.063011	-0.483566	0.181921
C67	C	1.062046	-0.533982	0.181908
C68	C	1.061577	-0.559181	0.090957
C69	C	1.228894	0.063445	0.000052
C70	C	1.328961	0.064465	0.000052
C71	C	1.056175	0.155233	0.000016
C72	C	1.057187	0.208894	-0.000001
N73	N	1.063997	0.066861	0.237483
N74	N	1.064048	0.066862	-0.237396
C75	C	1.002270	0.099672	0.710092
C76	C	1.125816	0.034054	0.710088
C77	C	1.125805	0.034052	0.605070
C78	C	1.064027	0.066861	0.552558
C79	C	1.002260	0.099672	0.605064
C80	C	1.187578	0.001245	0.552555
C81	C	1.187571	0.001243	0.447530
C82	C	1.125788	0.034050	0.395017
C83	C	1.064017	0.066862	0.447530
C84	C	1.002239	0.099671	0.395018
C85	C	0.940463	0.132481	0.447529
C86	C	0.940477	0.132480	0.552550
C87	C	1.125775	0.034052	0.289995
C88	C	1.002229	0.099672	0.289990
H89	H	0.790331	0.069178	0.165036
H90	H	0.790344	0.069174	-0.164992
H91	H	0.649292	0.067736	0.256009
C92	C	1.344045	-0.026998	0.584874
C93	C	1.255475	-0.034824	0.610266
H94	H	1.385959	-0.049268	0.620509
H95	H	1.352875	-0.031689	0.514819
H96	H	1.353371	0.005271	0.602091
H97	H	1.246147	-0.067092	0.593043
H98	H	1.246641	-0.030137	0.680337
H99	H	1.070788	-0.079836	-0.164940
H100	H	0.890167	0.159197	0.404761
H101	H	0.337697	0.064552	-0.164957
C102	C	0.231846	0.063477	0.171772
C103	C	0.324298	0.064418	0.190974
H104	H	0.199944	0.063149	0.233496
H105	H	0.209171	0.091484	0.134400
H106	H	0.223722	0.035153	0.134411
H107	H	0.332422	0.092744	0.228329
H108	H	0.346980	0.036409	0.228362
C109	C	1.137226	-0.664129	-0.196490
C110	C	1.059158	-0.687743	-0.190922
H111	H	1.137538	-0.647016	-0.258212
H112	H	1.137640	-0.641909	-0.142326
H113	H	1.189446	-0.687451	-0.192724
H114	H	1.006938	-0.664421	-0.194681
H115	H	1.058736	-0.709966	-0.245101
C116	C	0.885650	0.161620	0.713542
C117	C	0.872586	0.168546	0.610272
H118	H	0.843742	0.183889	0.749177
H119	H	0.876320	0.129354	0.730765
H120	H	0.945746	0.166927	0.730720
H121	H	0.812491	0.163235	0.593092
H122	H	0.881909	0.200819	0.593042
H123	H	1.176076	0.007340	0.247245
C124	C	1.179939	-0.049574	0.742449
C125	C	1.193711	-0.002012	0.767810
H126	H	1.221857	-0.071841	0.778085
H127	H	1.119854	-0.054874	0.759674
H128	H	1.188780	-0.054266	0.672386
H129	H	1.184864	0.002681	0.837873
H130	H	1.253810	0.003289	0.750592
H131	H	0.649327	0.067737	-0.255930
C132	C	0.477319	0.107613	0.336972
C133	C	0.465329	0.065860	0.281922
H134	H	0.445411	0.107288	0.398693
H135	H	0.540035	0.108251	0.349982
H136	H	0.454627	0.135616	0.299580
H137	H	0.488027	0.037856	0.319311
H138	H	0.402600	0.065217	0.268915
H139	H	1.057295	-0.786411	-0.165012
H140	H	1.237871	-0.025473	0.404783
H141	H	1.066357	-0.311752	-0.255923
C142	C	0.372889	0.064921	-0.262620
C143	C	0.465343	0.065860	-0.281837
H144	H	0.340986	0.064602	-0.324339
H145	H	0.364760	0.036599	-0.225249
H146	H	0.350217	0.092930	-0.225253
H147	H	0.488017	0.037848	-0.319198
H148	H	0.473477	0.094184	-0.319223
H149	H	1.069019	-0.171293	-0.164960
H150	H	1.058995	-0.694977	0.165027
C151	C	1.065121	-0.377597	-0.361662
C152	C	1.064481	-0.410388	-0.281850
H153	H	1.064819	-0.394693	-0.423393
H154	H	1.012903	-0.354283	-0.357880
H155	H	1.118087	-0.361582	-0.357849
H156	H	1.011511	-0.426400	-0.285659
H157	H	1.116705	-0.433710	-0.285635
C158	C	1.060524	-0.611272	0.262698
C159	C	1.061481	-0.561697	0.281894
H160	H	1.060168	-0.628379	0.324424
H161	H	1.007790	-0.615871	0.225311
H162	H	1.112974	-0.623190	0.225353
H163	H	1.009026	-0.549778	0.319232
H164	H	1.114220	-0.557095	0.319296
H165	H	1.057265	-0.786436	0.165014
H166	H	0.951970	0.126384	0.752849
C167	C	1.064971	-0.377662	0.361743
C168	C	1.064367	-0.410437	0.281925
H169	H	1.064619	-0.394768	0.423470
H170	H	1.117938	-0.361654	0.357968
H171	H	1.012754	-0.354340	0.357930
H172	H	1.116588	-0.433757	0.285733
H173	H	1.011395	-0.426453	0.285702
C174	C	0.989411	-0.270233	0.287468
C175	C	1.066388	-0.304607	0.281924
H176	H	0.989723	-0.253135	0.349196
H177	H	0.989854	-0.248001	0.233311
H178	H	0.936451	-0.286253	0.283675
H179	H	1.119348	-0.288586	0.285710
H180	H	1.065954	-0.326842	0.336096
H181	H	1.068994	-0.171340	0.165082
H182	H	1.070742	-0.079865	0.165084
C183	C	0.983480	-0.585247	-0.287390
C184	C	1.061566	-0.561649	-0.281853
H185	H	0.983149	-0.602352	-0.349107
H186	H	0.983059	-0.607474	-0.233220
H187	H	0.931273	-0.561918	-0.283615
H188	H	1.113773	-0.584979	-0.285621
H189	H	1.061995	-0.539421	-0.336039
C190	C	0.880108	0.164535	0.300544
C191	C	0.934321	0.135739	0.232272
H192	H	0.838189	0.186803	0.264909
H193	H	0.847975	0.144380	0.341514
H194	H	0.917394	0.181957	0.341498
H195	H	0.897035	0.118314	0.191323
H196	H	0.966456	0.155896	0.191285
H197	H	1.063462	-0.462999	-0.255939
H198	H	1.063395	-0.463055	0.255986
