data_functionalizedCrystal
_audit_creation_method	'MofGen! by Chris Wilmer'
_symmetry_space_group_name_H-M	'P1'
_symmetry_Int_Tables_number	1
_symmetry_cell_setting	triclinic
loop_
_symmetry_equiv_pos_as_xyz
  x,y,z
_cell_length_a	11.792241
_cell_length_b	10.868271
_cell_length_c	16.109301
_cell_angle_alpha	90.002838
_cell_angle_beta	83.827448
_cell_angle_gamma	90.000156
loop_
_atom_site_label
_atom_site_type_symbol
_atom_site_fract_x
_atom_site_fract_y
_atom_site_fract_z
O1	O	1.505910	0.102207	0.113950
O2	O	2.005910	0.602207	0.613950
O3	O	1.175466	0.102236	0.125694
O4	O	1.675466	0.602236	0.625694
O5	O	1.349765	0.102208	-0.001166
O6	O	1.849765	0.602208	0.498834
O7	O	1.331610	0.102235	0.240811
O8	O	1.831610	0.602235	0.740811
O9	O	1.349749	-0.102436	-0.001162
O10	O	1.849749	0.397564	0.498838
O11	O	1.175450	-0.102409	0.125698
O12	O	1.675450	0.397591	0.625698
O13	O	1.505894	-0.102438	0.113954
O14	O	2.005894	0.397562	0.613954
Zn15	Zn	1.340669	-0.134915	0.119827
Zn16	Zn	1.840669	0.365085	0.619827
Zn17	Zn	1.340690	0.134713	0.119822
Zn18	Zn	1.840690	0.634713	0.619822
O19	O	1.331594	-0.102410	0.240815
O20	O	1.831594	0.397590	0.740815
C21	C	1.133173	-0.000083	0.124959
C22	C	1.633173	0.499917	0.624959
C23	C	1.007179	-0.000072	0.122751
C24	C	1.507179	0.499928	0.622751
N25	N	1.340663	-0.318929	0.119830
N26	N	1.840663	0.181071	0.619830
C27	C	1.340672	-0.430267	0.119831
C28	C	1.840672	0.069733	0.619831
C29	C	1.340687	-0.569944	0.119823
C30	C	1.840687	-0.069944	0.619823
C31	C	0.776502	-0.000108	0.118690
C32	C	1.276502	0.499892	0.618690
C33	C	0.904868	-0.000088	0.120946
C34	C	1.404868	0.499912	0.620946
C35	C	1.548186	-0.000116	0.114690
C36	C	2.048186	0.499884	0.614690
C37	C	1.674181	-0.000119	0.116898
C38	C	2.174181	0.499881	0.616898
C39	C	1.349022	-0.000115	-0.032142
C40	C	1.849022	0.499885	0.467858
C41	C	1.346817	-0.000116	-0.124448
C42	C	1.846817	0.499884	0.375552
N43	N	1.340705	0.318727	0.119812
N44	N	1.840705	0.818727	0.619812
C45	C	1.445116	-0.000105	-0.346258
C46	C	1.945116	0.499895	0.153742
C47	C	1.443036	-0.000095	-0.432988
C48	C	1.943036	0.499905	0.067012
C49	C	1.236235	-0.000082	-0.414087
C50	C	1.736235	0.499918	0.085913
C51	C	1.238317	-0.000083	-0.327358
C52	C	1.738317	0.499917	0.172642
C53	C	1.342761	-0.000101	-0.293446
C54	C	1.842761	0.499899	0.206554
C55	C	1.338599	-0.000089	-0.466905
C56	C	1.838599	0.499911	0.033095
C57	C	1.336342	-0.000078	-0.560942
C58	C	1.836342	0.499922	-0.060942
C59	C	1.345018	-0.000110	-0.199404
C60	C	1.845018	0.499890	0.300596
C61	C	1.332338	-0.000084	0.271791
C62	C	1.832338	0.499916	0.771791
C63	C	1.334542	-0.000074	0.364097
C64	C	1.834542	0.499926	0.864097
H65	H	1.530161	-0.000117	-0.318650
H66	H	2.030161	0.499883	0.181350
Cl67	Cl	1.571718	-0.000098	-0.499376
Cl68	Cl	2.071718	0.499902	0.000624
H69	H	1.151201	-0.000069	-0.441709
H70	H	1.651201	0.499931	0.058291
H71	H	1.154962	-0.000076	-0.284357
H72	H	1.654962	0.499924	0.215643
