data_functionalizedCrystal
_audit_creation_method	'MofGen! by Chris Wilmer'
_symmetry_space_group_name_H-M	'P1'
_symmetry_Int_Tables_number	1
_symmetry_cell_setting	triclinic
loop_
_symmetry_equiv_pos_as_xyz
  x,y,z
_cell_length_a	8.497365
_cell_length_b	12.827893
_cell_length_c	12.827892
_cell_angle_alpha	89.984638
_cell_angle_beta	90.050312
_cell_angle_gamma	89.967592
loop_
_atom_site_label
_atom_site_type_symbol
_atom_site_fract_x
_atom_site_fract_y
_atom_site_fract_z
Zn1	Zn	-0.891964	1.597805	0.415772
Zn2	Zn	-0.628171	1.597659	0.590612
Zn3	Zn	-0.628191	1.423006	0.415885
Zn4	Zn	-0.891904	1.423032	0.590471
O5	O	-0.760057	1.510376	0.503185
O6	O	-0.856988	1.744022	0.438976
O7	O	-0.407411	1.574419	0.567540
O8	O	-0.663215	1.446244	0.269634
O9	O	-0.663181	1.743915	0.567430
O10	O	-0.857007	1.574668	0.269551
O11	O	-0.407426	1.446103	0.439169
O12	O	-0.663157	1.276774	0.439033
O13	O	-1.112674	1.446288	0.567191
O14	O	-0.856905	1.276792	0.567301
O15	O	-1.112718	1.574693	0.438840
O16	O	-0.663122	1.574444	0.736829
O17	O	-0.856886	1.446146	0.736726
C18	C	-0.760027	1.238866	0.503165
C19	C	-0.760052	1.122713	0.503181
C20	C	-0.760030	1.510310	0.774695
C21	C	-0.760070	1.510378	0.890848
C22	C	-0.855777	1.070965	0.566751
C23	C	-0.855805	0.950914	0.566770
C24	C	-0.350177	1.510300	0.503299
C25	C	-0.171534	1.510449	0.503084
C26	C	-0.760089	1.782946	0.503206
C27	C	-0.760102	1.899099	0.503215
C28	C	-0.760120	1.510470	0.230615
C29	C	-0.760147	1.510510	0.114461
C30	C	-0.664297	1.573939	0.942649
C31	C	-0.664337	1.574011	1.062699
H32	H	-0.937716	1.115538	0.621159
H33	H	-0.842141	1.456085	1.069922
H34	H	-0.678125	1.078139	0.448766
H35	H	-0.678138	0.943594	0.448791
H36	H	-0.582337	1.628425	1.107247
C37	C	-1.122770	0.917233	0.617789
C38	C	-0.966452	0.890848	0.640244
H39	H	-1.191079	0.880153	0.663155
H40	H	-1.146001	0.899411	0.547583
H41	H	-1.137248	0.990030	0.627420
H42	H	-0.951971	0.818052	0.630606
H43	H	-0.943213	0.908663	0.710467
H44	H	-0.842102	1.456018	0.935376
H45	H	-0.582276	1.628308	0.898124
