data_functionalizedCrystal
_audit_creation_method	'MofGen! by Chris Wilmer'
_symmetry_space_group_name_H-M	'P1'
_symmetry_Int_Tables_number	1
_symmetry_cell_setting	triclinic
loop_
_symmetry_equiv_pos_as_xyz
  x,y,z
_cell_length_a	14.519709
_cell_length_b	10.654550
_cell_length_c	9.130313
_cell_angle_alpha	90.000276
_cell_angle_beta	89.994534
_cell_angle_gamma	95.917462
loop_
_atom_site_label
_atom_site_type_symbol
_atom_site_fract_x
_atom_site_fract_y
_atom_site_fract_z
O1	O	0.129532	-1.666594	-0.121694
O2	O	0.462866	-1.333261	0.211640
O3	O	0.796199	-0.999927	0.544973
O4	O	0.141873	-1.300997	-0.121721
O5	O	0.475207	-0.967663	0.211613
O6	O	0.808540	-0.634330	0.544946
O7	O	0.001515	-1.493489	-0.121693
O8	O	0.334848	-1.160155	0.211640
O9	O	0.668181	-0.826822	0.544973
O10	O	0.269891	-1.474102	-0.121721
O11	O	0.603224	-1.140769	0.211612
O12	O	0.936558	-0.807435	0.544946
O13	O	0.001510	-1.493476	0.121906
O14	O	0.334844	-1.160142	0.455239
O15	O	0.668177	-0.826809	0.788572
O16	O	0.141869	-1.300984	0.121878
O17	O	0.475202	-0.967650	0.455211
O18	O	0.808536	-0.634317	0.788545
O19	O	0.129528	-1.666581	0.121905
O20	O	0.462862	-1.333247	0.455239
O21	O	0.796195	-0.999914	0.788572
Cu22	Cu	0.135698	-1.483781	0.144134
Cu23	Cu	0.469032	-1.150448	0.477468
Cu24	Cu	0.802365	-0.817114	0.810801
Cu25	Cu	0.135703	-1.483797	-0.143950
Cu26	Cu	0.469036	-1.150463	0.189384
Cu27	Cu	0.802370	-0.817130	0.522717
O28	O	0.269887	-1.474089	0.121878
O29	O	0.603220	-1.140756	0.455211
O30	O	0.936554	-0.807422	0.788544
C31	C	0.140965	-1.254201	0.000075
C32	C	0.474298	-0.920868	0.333409
C33	C	0.807632	-0.587534	0.666742
C34	C	0.138254	-1.114784	0.000065
C35	C	0.471587	-0.781450	0.333399
C36	C	0.804921	-0.448117	0.666732
C37	C	-0.032852	-1.492579	0.000106
C38	C	0.300481	-1.159245	0.333440
C39	C	0.633815	-0.825912	0.666773
C40	C	-0.135247	-1.489871	0.000107
C41	C	0.198086	-1.156538	0.333440
C42	C	0.531419	-0.823204	0.666774
C43	C	0.130436	-1.713377	0.000106
C44	C	0.463770	-1.380043	0.333439
C45	C	0.797103	-1.046710	0.666773
C46	C	0.133147	-1.852794	0.000106
C47	C	0.466481	-1.519460	0.333440
C48	C	0.799814	-1.186127	0.666773
C49	C	-0.510195	-1.479904	0.000068
C50	C	-0.176861	-1.146571	0.333402
C51	C	0.156472	-0.813237	0.666735
C52	C	-0.405872	-1.482672	0.000079
C53	C	-0.072539	-1.149338	0.333413
C54	C	0.260794	-0.816005	0.666746
C55	C	-0.322724	-1.484887	0.000089
C56	C	0.010609	-1.151554	0.333422
C57	C	0.343942	-0.818221	0.666756
C58	C	-0.218395	-1.487656	0.000097
C59	C	0.114938	-1.154322	0.333431
C60	C	0.448271	-0.820989	0.666764
C61	C	0.304253	-1.474999	0.000075
C62	C	0.637587	-1.141666	0.333408
C63	C	0.970920	-0.808332	0.666742
C64	C	0.406649	-1.477706	0.000065
C65	C	0.739982	-1.144373	0.333398
C66	C	1.073315	-0.811040	0.666731
N67	N	0.135694	-1.483779	0.346757
N68	N	0.469028	-1.150446	0.680090
N69	N	0.802361	-0.817113	1.013423
C70	C	0.220895	-1.034504	0.000061
C71	C	0.554228	-0.701170	0.333394
C72	C	0.887562	-0.367837	0.666728
C73	C	0.218342	-0.903507	0.000087
C74	C	0.551675	-0.570174	0.333420
C75	C	0.885009	-0.236841	0.666753
C76	C	0.050500	-0.933084	0.000115
C77	C	0.383833	-0.599751	0.333448
C78	C	0.717167	-0.266418	0.666782
C79	C	0.053054	-1.064078	0.000100
C80	C	0.386387	-0.730745	0.333433
C81	C	0.719721	-0.397411	0.666766
N82	N	0.135700	-1.483808	-0.346572
N83	N	0.469033	-1.150475	-0.013239
N84	N	0.802367	-0.817142	0.320094
C85	C	0.073570	-1.569043	0.423421
C86	C	0.406903	-1.235710	0.756754
C87	C	0.740237	-0.902377	1.090088
C88	C	0.073570	-1.569055	0.576758
C89	C	0.406903	-1.235722	0.910091
C90	C	0.740237	-0.902389	1.243424
C91	C	0.197827	-1.398535	0.576753
C92	C	0.531161	-1.065202	0.910086
C93	C	0.864494	-0.731869	1.243420
C94	C	0.197822	-1.398518	0.423419
C95	C	0.531155	-1.065185	0.756752
C96	C	0.864489	-0.731851	1.090086
H97	H	0.290270	-1.075783	0.000044
H98	H	0.623604	-0.742450	0.333377
H99	H	0.956937	-0.409117	0.666711
N100	N	0.302767	-0.821521	0.000093
N101	N	0.636100	-0.488188	0.333426
N102	N	0.969434	-0.154855	0.666760
N103	N	0.378827	-0.866817	0.000071
N104	N	0.712160	-0.533484	0.333405
N105	N	1.045494	-0.200150	0.666738
H106	H	0.438457	-0.808915	0.000079
H107	H	0.771790	-0.475582	0.333412
H108	H	1.105124	-0.142249	0.666746
H109	H	-0.018867	-0.891783	0.000152
H110	H	0.314466	-0.558450	0.333485
H111	H	0.647800	-0.225117	0.666819
H112	H	-0.014247	-1.129446	0.000108
H113	H	0.319087	-0.796113	0.333441
H114	H	0.652420	-0.462780	0.666774
H115	H	0.248411	-1.329080	0.360995
H116	H	0.581745	-0.995747	0.694328
H117	H	0.915078	-0.662413	1.027661
H118	H	0.022981	-1.638466	0.361006
H119	H	0.356314	-1.305133	0.694340
H120	H	0.689647	-0.971800	1.027673
H121	H	0.022982	-1.638483	0.639173
H122	H	0.356315	-1.305150	0.972507
H123	H	0.689648	-0.971817	1.305840
N124	N	0.261279	-1.311455	0.655087
N125	N	0.594612	-0.978122	0.988420
N126	N	0.927946	-0.644789	1.321754
N127	N	0.261277	-1.311481	0.791991
N128	N	0.594610	-0.978147	1.125324
N129	N	0.927943	-0.644814	1.458658
H130	H	0.306092	-1.249980	0.847315
H131	H	0.639425	-0.916647	1.180648
H132	H	0.972759	-0.583314	1.513981
