data_functionalizedCrystal
_audit_creation_method	'MofGen! by Chris Wilmer'
_symmetry_space_group_name_H-M	'P1'
_symmetry_Int_Tables_number	1
_symmetry_cell_setting	triclinic
loop_
_symmetry_equiv_pos_as_xyz
  x,y,z
_cell_length_a	9.065218
_cell_length_b	10.654553
_cell_length_c	9.730223
_cell_angle_alpha	89.999314
_cell_angle_beta	89.999873
_cell_angle_gamma	95.248968
loop_
_atom_site_label
_atom_site_type_symbol
_atom_site_fract_x
_atom_site_fract_y
_atom_site_fract_z
O1	O	-0.207250	1.668653	-0.114301
O2	O	-0.226989	1.303253	-0.114299
O3	O	-0.002436	1.493505	-0.114296
O4	O	-0.431803	1.478400	-0.114304
O5	O	-0.002442	1.493503	0.114284
O6	O	-0.226995	1.303251	0.114281
O7	O	-0.207256	1.668650	0.114279
Zn8	Zn	-0.217126	1.485950	0.150572
Zn9	Zn	-0.217119	1.485953	-0.150592
O10	O	-0.431809	1.478398	0.114276
C11	C	-0.225542	1.256448	-0.000009
C12	C	-0.221203	1.116988	-0.000009
C13	C	-0.215081	0.920422	0.124580
C14	C	-0.219166	1.051459	0.124588
C15	C	-0.219169	1.051471	-0.124622
C16	C	-0.215094	0.920436	-0.124628
C17	C	-0.215073	0.920417	0.268460
C18	C	-0.219159	1.051454	0.268468
C19	C	-0.486785	1.479851	-0.000015
C20	C	-0.650604	1.484191	-0.000018
C21	C	0.052540	1.492053	-0.000008
C22	C	0.216359	1.487712	-0.000014
C23	C	-0.208703	1.715455	-0.000014
C24	C	-0.213042	1.854915	-0.000023
N25	N	-0.217131	1.485957	0.356108
N26	N	-0.217103	1.485956	-0.356128
C27	C	-0.117732	1.570223	0.428036
C28	C	-0.117715	1.570220	0.571919
C29	C	-0.316506	1.401681	0.571934
C30	C	-0.316516	1.401679	0.428054
C31	C	-0.002966	1.667532	0.428028
C32	C	-0.002948	1.667529	0.571911
H33	H	-0.117190	1.097334	0.323706
H34	H	-0.107465	0.890417	0.313101
H35	H	-0.397440	1.333052	0.369491
H36	H	0.110442	1.645640	0.388976
H37	H	-0.317036	0.874536	0.323704
H38	H	-0.038903	1.758858	0.383401
H39	H	-0.397422	1.333062	0.630527
H40	H	-0.326774	1.081444	0.313113
H41	H	0.104222	1.636591	0.616529
O42	O	-0.033180	1.782837	0.618279
C43	C	-0.088081	1.992986	0.558205
C44	C	-0.053899	1.862456	0.505508
H45	H	-0.104811	2.057402	0.467058
H46	H	-0.193089	1.982785	0.623259
H47	H	0.008466	2.035429	0.623329
H48	H	-0.150354	1.819939	0.440328
H49	H	0.051159	1.872737	0.440530
H50	H	-0.213452	0.867103	-0.226093
O51	O	-0.221418	1.115040	-0.245692
C52	C	-0.350227	1.142313	-0.458720
C53	C	-0.347880	1.070249	-0.321643
H54	H	-0.452445	1.106108	-0.520177
H55	H	-0.353592	1.247225	-0.437393
H56	H	-0.246305	1.126897	-0.520113
H57	H	-0.451781	1.085561	-0.260181
H58	H	-0.344438	0.965362	-0.343066
