data_functionalizedCrystal
_audit_creation_method	'MofGen! by Chris Wilmer'
_symmetry_space_group_name_H-M	'P1'
_symmetry_Int_Tables_number	1
_symmetry_cell_setting	triclinic
loop_
_symmetry_equiv_pos_as_xyz
  x,y,z
_cell_length_a	14.519709
_cell_length_b	11.792241
_cell_length_c	10.268362
_cell_angle_alpha	90.003760
_cell_angle_beta	90.002293
_cell_angle_gamma	83.936780
loop_
_atom_site_label
_atom_site_type_symbol
_atom_site_fract_x
_atom_site_fract_y
_atom_site_fract_z
O1	O	0.126399	1.506209	0.108277
O2	O	0.626399	2.006209	0.608277
O3	O	0.139427	1.175796	0.108286
O4	O	0.639427	1.675796	0.608286
O5	O	-0.001293	1.349763	0.108270
O6	O	0.498707	1.849763	0.608270
O7	O	0.267119	1.332242	0.108294
O8	O	0.767119	1.832242	0.608294
O9	O	-0.001289	1.349746	-0.108331
O10	O	0.498711	1.849746	0.391669
O11	O	0.139431	1.175779	-0.108315
O12	O	0.639431	1.675779	0.391685
O13	O	0.126404	1.506192	-0.108323
O14	O	0.626404	2.006192	0.391677
Cu15	Cu	0.132918	1.340984	-0.128096
Cu16	Cu	0.632918	1.840984	0.371904
Cu17	Cu	0.132912	1.341004	0.128059
Cu18	Cu	0.632912	1.841004	0.628059
O19	O	0.267124	1.332225	-0.108307
O20	O	0.767124	1.832225	0.391693
C21	C	-0.035654	1.348938	-0.000031
C22	C	0.464346	1.848938	0.499969
C23	C	-0.138044	1.346491	-0.000031
C24	C	0.361956	1.846491	0.499969
C25	C	0.127220	1.548487	-0.000021
C26	C	0.627220	2.048487	0.499979
C27	C	0.129669	1.674487	-0.000015
C28	C	0.629669	2.174487	0.499985
C29	C	0.138611	1.133501	-0.000013
C30	C	0.638611	1.633501	0.499987
C31	C	0.136161	1.007501	-0.000010
C32	C	0.636161	1.507501	0.499990
C33	C	-0.512973	1.337483	0.000003
C34	C	-0.012973	1.837483	0.500003
C35	C	-0.408656	1.339984	-0.000007
C36	C	0.091344	1.839984	0.499993
C37	C	-0.325512	1.341987	-0.000016
C38	C	0.174488	1.841987	0.499984
C39	C	-0.221188	1.344489	-0.000023
C40	C	0.278812	1.844489	0.499977
C41	C	0.301484	1.333050	-0.000004
C42	C	0.801484	1.833050	0.499996
C43	C	0.403875	1.335497	0.000006
C44	C	0.903875	1.835497	0.500006
N45	N	0.132922	1.340978	-0.308262
N46	N	0.632922	1.840978	0.191738
C47	C	0.134173	1.905174	-0.000015
C48	C	0.634173	2.405174	0.499985
C49	C	0.131671	1.776803	-0.000016
C50	C	0.631671	2.276803	0.499984
C51	C	0.132922	1.340987	-0.426104
C52	C	0.632922	1.840987	0.073896
C53	C	0.132914	1.341001	-0.573942
C54	C	0.632914	1.841001	-0.073942
N55	N	0.132902	1.341018	0.308225
N56	N	0.632902	1.841018	0.808225
