data_functionalizedCrystal
_audit_creation_method	'MofGen! by Chris Wilmer'
_symmetry_space_group_name_H-M	'P1'
_symmetry_Int_Tables_number	1
_symmetry_cell_setting	triclinic
loop_
_symmetry_equiv_pos_as_xyz
  x,y,z
_cell_length_a	12.594517
_cell_length_b	12.594516
_cell_length_c	18.101389
_cell_angle_alpha	90.014195
_cell_angle_beta	90.019315
_cell_angle_gamma	90.011616
loop_
_atom_site_label
_atom_site_type_symbol
_atom_site_fract_x
_atom_site_fract_y
_atom_site_fract_z
Zn1	Zn	1.627277	-0.423859	0.418761
Zn2	Zn	1.627187	-0.601827	0.294929
Zn3	Zn	1.449287	-0.423862	0.294933
Zn4	Zn	1.449276	-0.601796	0.418728
O5	O	1.538257	-0.512836	0.356838
O6	O	1.776211	-0.447479	0.402347
O7	O	1.603556	-0.578234	0.191297
O8	O	1.472940	-0.274916	0.311375
O9	O	1.776145	-0.578231	0.311368
O10	O	1.603709	-0.274914	0.402351
O11	O	1.472853	-0.447484	0.191300
O12	O	1.300340	-0.447454	0.311343
O13	O	1.472922	-0.578178	0.522366
O14	O	1.300332	-0.578180	0.402295
O15	O	1.603698	-0.447449	0.522390
O16	O	1.603545	-0.750769	0.311336
O17	O	1.472835	-0.750746	0.402291
C18	C	1.261716	-0.512815	0.356816
C19	C	1.143411	-0.512831	0.356825
C20	C	1.074131	-0.441632	0.307450
C21	C	1.003328	-0.538714	0.289235
C22	C	1.003415	-0.415796	0.375052
C23	C	1.074166	-0.609965	0.338574
C24	C	1.074259	-0.486981	0.424423
C25	C	1.003488	-0.584131	0.406233
C26	C	1.538208	-0.789377	0.356825
C27	C	1.538284	-0.907683	0.356845
C28	C	1.609460	-0.976910	0.307427
C29	C	1.635467	-1.047629	0.375021
C30	C	1.512410	-1.047762	0.289293
C31	C	1.564341	-0.976844	0.424474
C32	C	1.441239	-0.976970	0.338701
C33	C	1.467209	-1.047658	0.406342
C34	C	1.815878	-0.512858	0.356860
C35	C	1.934183	-0.512868	0.356870
C36	C	1.538319	-0.512809	0.550000
C37	C	1.538345	-0.512798	0.632314
C38	C	1.538336	-0.235215	0.356867
C39	C	1.538369	-0.116910	0.356880
C40	C	1.538257	-0.512786	0.164428
C41	C	1.538437	-0.512498	0.082114
C42	C	1.538407	-0.512598	0.931405
C43	C	1.455842	-0.594588	0.900065
C44	C	1.456066	-0.594968	0.814447
C45	C	1.538375	-0.512697	0.783023
C46	C	1.650527	-0.543144	0.814123
C47	C	1.650067	-0.543683	0.899768
C48	C	1.509794	-0.399979	0.899826
C49	C	1.507299	-0.400630	0.814175
C50	C	1.538364	-0.512751	0.699163
C51	C	1.538425	-0.512547	1.015265
H52	H	0.972281	-0.333731	0.390425
H53	H	1.105114	-0.692066	0.323113
H54	H	1.669661	-0.945845	0.265674
C55	C	1.688517	-0.388426	0.741302
C56	C	1.735814	-0.465073	0.786645
H57	H	1.741171	-0.340233	0.724334
H58	H	1.636279	-0.350817	0.768631
H59	H	1.656038	-0.422251	0.700182
H60	H	1.768286	-0.431249	0.827768
H61	H	1.788070	-0.502687	0.759315
H62	H	1.569930	-0.338893	0.920095
H63	H	0.972174	-0.560602	0.232088
H64	H	1.675197	-0.624595	0.792684
H65	H	0.972664	-0.644427	0.448007
C66	C	1.814903	-1.003762	0.407882
C67	C	1.746310	-1.089528	0.395760
H68	H	1.883337	-1.029625	0.420675
H69	H	1.788181	-0.961203	0.447005
H70	H	1.819725	-0.962302	0.364178
H71	H	1.741482	-1.130984	0.439466
H72	H	1.773039	-1.132105	0.356633
H73	H	1.490491	-1.078912	0.232152
C74	C	1.080712	-0.355678	0.520500
C75	C	1.116362	-0.457397	0.501544
H76	H	1.106714	-0.337405	0.568110
H77	H	1.005305	-0.354841	0.520971
H78	H	1.105958	-0.305802	0.485280
H79	H	1.091110	-0.507275	0.536761
H80	H	1.191785	-0.458242	0.501079
C81	C	1.177229	-0.283838	0.287531
C82	C	1.116017	-0.360428	0.251020
H83	H	1.203082	-0.233707	0.252692
H84	H	1.235400	-0.317354	0.311435
H85	H	1.134711	-0.248496	0.323219
H86	H	1.158538	-0.395775	0.215335
H87	H	1.057838	-0.326908	0.227104
H88	H	1.586179	-0.945825	0.481665
C89	C	1.413396	-1.053344	0.533516
C90	C	1.386003	-1.089342	0.462839
H91	H	1.363269	-1.079086	0.568395
H92	H	1.413335	-0.977933	0.534087
H93	H	1.482158	-1.078617	0.546001
H94	H	1.317244	-1.064063	0.450351
H95	H	1.386053	-1.164769	0.462265
C96	C	1.275733	-0.553346	0.846192
C97	C	1.343801	-0.569242	0.786053
H98	H	1.206422	-0.537471	0.828664
H99	H	1.301120	-0.495883	0.875245
H100	H	1.273484	-0.615914	0.875447
H101	H	1.346056	-0.506672	0.756801
H102	H	1.318408	-0.626710	0.756988
C103	C	1.496845	-0.775060	0.847376
C104	C	1.481655	-0.707638	0.786793
H105	H	1.512662	-0.844616	0.830303
H106	H	1.434040	-0.776787	0.876384
H107	H	1.554152	-0.749507	0.876523
H108	H	1.424343	-0.733186	0.757650
H109	H	1.544468	-0.705914	0.757773
H110	H	1.563044	-0.336300	0.792784
H111	H	1.359156	-0.945907	0.323315
H112	H	1.372428	-0.575730	0.920655
H113	H	1.474548	-0.677555	0.921594
H114	H	1.674318	-0.626008	0.919754
H115	H	1.713671	-0.486557	0.920502
H116	H	1.424766	-0.377669	0.793847
C117	C	1.358739	-0.440188	0.975714
C118	C	1.401312	-0.362524	0.928971
H119	H	1.291764	-0.417071	0.993706
H120	H	1.405540	-0.451594	1.016094
H121	H	1.350025	-0.504566	0.949035
H122	H	1.410034	-0.298148	0.955651
H123	H	1.354500	-0.351104	0.888584
