data_functionalizedCrystal
_audit_creation_method	'MofGen! by Chris Wilmer'
_symmetry_space_group_name_H-M	'P1'
_symmetry_Int_Tables_number	1
_symmetry_cell_setting	triclinic
loop_
_symmetry_equiv_pos_as_xyz
  x,y,z
_cell_length_a	15.624884
_cell_length_b	14.044220
_cell_length_c	14.185328
_cell_angle_alpha	103.587856
_cell_angle_beta	57.724931
_cell_angle_gamma	91.516313
loop_
_atom_site_label
_atom_site_type_symbol
_atom_site_fract_x
_atom_site_fract_y
_atom_site_fract_z
O1	O	-1.341911	0.255280	0.571739
O2	O	-0.841911	0.755280	1.071739
O3	O	-1.055908	0.246089	0.467667
O4	O	-0.555908	0.746089	0.967667
O5	O	-1.194614	0.112333	0.518130
O6	O	-0.694614	0.612333	1.018130
O7	O	-1.203205	0.389036	0.521276
O8	O	-0.703205	0.889036	1.021276
O9	O	-1.151276	0.070285	0.335515
O10	O	-0.651276	0.570285	0.835515
O11	O	-1.012570	0.204041	0.285051
O12	O	-0.512570	0.704041	0.785051
O13	O	-1.298573	0.213233	0.389124
O14	O	-0.798573	0.713233	0.889124
Cu15	Cu	-1.151615	0.204798	0.320413
Cu16	Cu	-0.651615	0.704798	0.820413
Cu17	Cu	-1.202866	0.254524	0.536377
Cu18	Cu	-0.702866	0.754524	1.036377
O19	O	-1.159867	0.346989	0.338661
O20	O	-0.659867	0.846989	0.838661
C21	C	-0.997416	0.221315	0.362959
C22	C	-0.497416	0.721315	0.862959
C23	C	-0.887693	0.210131	0.323032
C24	C	-0.387693	0.710131	0.823032
C25	C	-0.645059	0.287920	0.689544
C26	C	-0.145059	0.787920	1.189544
C27	C	-0.541958	0.277391	0.652025
C28	C	-0.041958	0.777391	1.152025
C29	C	-0.494689	0.231550	0.452936
C30	C	0.005311	0.731550	0.952936
C31	C	-0.597788	0.242070	0.490438
C32	C	-0.097788	0.742070	0.990438
C33	C	-0.672966	0.270256	0.608744
C34	C	-0.172966	0.770256	1.108744
C35	C	-0.625694	0.224407	0.409638
C36	C	-0.125694	0.724407	0.909638
C37	C	-0.728784	0.234931	0.447138
C38	C	-0.228784	0.734931	0.947138
C39	C	-0.803968	0.263119	0.565438
C40	C	-0.303968	0.763119	1.065438
C41	C	-0.776056	0.280781	0.646244
C42	C	-0.276056	0.780781	1.146244
C43	C	-0.550514	0.196228	0.291333
C44	C	-0.050514	0.696228	0.791333
C45	C	-0.578421	0.178565	0.210533
C46	C	-0.078421	0.678565	0.710533
C47	C	-0.681513	0.189082	0.248032
C48	C	-0.181513	0.689082	0.748032
C49	C	-0.756696	0.217270	0.366333
C50	C	-0.256696	0.717270	0.866333
C51	C	-0.709424	0.171421	0.167227
C52	C	-0.209424	0.671421	0.667227
C53	C	-0.812514	0.181945	0.204727
C54	C	-0.312514	0.681945	0.704727
C55	C	-0.859786	0.227794	0.403833
C56	C	-0.359786	0.727794	0.903833
C57	C	-1.169187	0.055676	0.425454
C58	C	-0.669187	0.555676	0.925454
C59	C	-1.157976	-0.050502	0.421374
C60	C	-0.657976	0.449498	0.921374
C61	C	-1.137485	-0.244900	0.413932
C62	C	-0.637485	0.255100	0.913932
C63	C	-1.216994	-0.295783	0.442867
C64	C	-0.716994	0.204217	0.942867
C65	C	-1.205593	-0.403952	0.438726
C66	C	-0.705593	0.096048	0.938726
C67	C	-1.148885	-0.136720	0.418072
C68	C	-0.648885	0.363280	0.918072
C69	C	-0.357064	0.238012	0.493828
C70	C	0.142936	0.738012	0.993828
C71	C	-0.466784	0.249214	0.533744
C72	C	0.033216	0.749214	1.033744
C73	C	-1.185295	0.403646	0.431339
C74	C	-0.685295	0.903646	0.931339
C75	C	-1.196507	0.509826	0.435427
C76	C	-0.696507	1.009826	0.935427
N77	N	-1.115574	0.169823	0.168519
N78	N	-0.615574	0.669823	0.668519
C79	C	-1.344724	0.392267	-0.115689
C80	C	-0.844724	0.892267	0.384311
C81	C	-1.317445	0.365761	-0.230644
C82	C	-0.817445	0.865761	0.269356
C83	C	-1.187627	0.239700	-0.277877
C84	C	-0.687627	0.739700	0.222123
C85	C	-1.214891	0.266198	-0.162925
C86	C	-0.714891	0.766198	0.337075
C87	C	-1.293441	0.342481	-0.081839
C88	C	-0.793441	0.842481	0.418161
C89	C	-1.163609	0.216413	-0.129075
C90	C	-0.663609	0.716413	0.370925
C91	C	-1.190875	0.242906	-0.014132
C92	C	-0.690875	0.742906	0.485868
C93	C	-1.269423	0.319184	0.066961
C94	C	-0.769423	0.819184	0.566961
C95	C	-1.320707	0.368974	0.033104
C96	C	-0.820707	0.868974	0.533104
C97	C	-1.085064	0.140126	-0.210161
C98	C	-0.585064	0.640126	0.289839
C99	C	-1.033781	0.090340	-0.176311
C100	C	-0.533781	0.590340	0.323689
C101	C	-1.061042	0.116838	-0.061368
C102	C	-0.561042	0.616838	0.438632
C103	C	-1.139591	0.193116	0.019725
C104	C	-0.639591	0.693116	0.519725
C105	C	-1.009759	0.067047	-0.027511
C106	C	-0.509759	0.567047	0.472489
C107	C	-1.037025	0.093540	0.087433
C108	C	-0.537025	0.593540	0.587433
C109	C	-1.166857	0.219608	0.134669
C110	C	-0.666857	0.719608	0.634669
N111	N	-1.238914	0.289491	0.688275
N112	N	-0.738914	0.789491	1.188275
H113	H	-0.706275	0.310868	0.785880
H114	H	-0.206275	0.810868	1.285880
H115	H	-1.291624	0.340752	0.160555
H116	H	-0.791624	0.840752	0.660555
Cl117	Cl	-0.911021	-0.028855	-0.129456
Cl118	Cl	-0.411021	0.471145	0.370544
Cl119	Cl	-1.335309	-0.237620	0.485910
Cl120	Cl	-0.835309	0.262380	0.985910
Cl121	Cl	-1.265617	0.315501	0.236618
Cl122	Cl	-0.765617	0.815501	0.736618
Cl123	Cl	-0.614904	0.136003	0.018506
Cl124	Cl	-0.114904	0.636003	0.518506
H125	H	-0.921002	0.250743	0.500169
H126	H	-0.421002	0.750743	1.000169
Cl127	Cl	-0.847601	0.159742	0.103149
Cl128	Cl	-0.347601	0.659742	0.603149
H129	H	-0.517197	0.155619	0.114208
H130	H	-0.017197	0.655619	0.614208
H131	H	-1.384660	0.431101	0.099127
H132	H	-0.884660	0.931101	0.599127
H133	H	-1.062872	0.118552	-0.303752
H134	H	-0.562872	0.618552	0.196248
H135	H	-1.060858	-0.282573	0.386051
H136	H	-0.560858	0.217427	0.886051
Cl137	Cl	-0.506882	0.299604	0.753617
Cl138	Cl	-0.006882	0.799604	1.253617
Cl139	Cl	-1.443483	0.488159	-0.013740
Cl140	Cl	-0.943483	0.988159	0.486260
H141	H	-1.359211	0.406309	-0.258196
H142	H	-0.859211	0.906309	0.241804
H143	H	-0.433465	0.208604	0.356611
H144	H	0.066535	0.708604	0.856611
Cl145	Cl	-1.088881	0.143806	-0.379822
Cl146	Cl	-0.588881	0.643806	0.120178
H147	H	-0.969828	0.028227	-0.242345
H148	H	-0.469828	0.528227	0.257655
H149	H	-0.995263	0.053001	0.114992
H150	H	-0.495263	0.553001	0.614992
Cl151	Cl	-0.420913	0.183003	0.244191
Cl152	Cl	0.079087	0.683003	0.744191
H153	H	-0.887909	0.271694	0.595969
H154	H	-0.387909	0.771694	1.095969
H155	H	-0.837272	0.303729	0.742580
H156	H	-0.337272	0.803729	1.242580
