data_functionalizedCrystal
_audit_creation_method	'MofGen! by Chris Wilmer'
_symmetry_space_group_name_H-M	'P1'
_symmetry_Int_Tables_number	1
_symmetry_cell_setting	triclinic
loop_
_symmetry_equiv_pos_as_xyz
  x,y,z
_cell_length_a	13.635800
_cell_length_b	17.296766
_cell_length_c	11.102300
_cell_angle_alpha	82.266923
_cell_angle_beta	108.605850
_cell_angle_gamma	77.378987
loop_
_atom_site_label
_atom_site_type_symbol
_atom_site_fract_x
_atom_site_fract_y
_atom_site_fract_z
V1	V	2.044201	-0.111100	0.409041
O2	O	2.035837	0.005339	0.388099
O3	O	2.021224	-0.220293	0.418895
O4	O	2.032769	-0.109391	0.581665
O5	O	2.024212	-0.106331	0.224202
V6	V	2.284202	-0.097173	0.385395
O7	O	2.178692	-0.141651	0.460908
O8	O	2.374810	-0.066622	0.333528
O9	O	2.195576	0.012020	0.375541
O10	O	2.351264	-0.213612	0.406337
O11	O	2.362890	-0.101942	0.570234
O12	O	2.184030	-0.098882	0.212771
V13	V	2.544201	-0.111100	0.409041
O14	O	2.535837	0.005339	0.388099
O15	O	2.521224	-0.220293	0.418895
O16	O	2.532769	-0.109391	0.581665
O17	O	2.524212	-0.106331	0.224202
V18	V	2.784202	-0.097173	0.385395
O19	O	2.678692	-0.141651	0.460908
O20	O	2.874810	-0.066622	0.333528
O21	O	2.695576	0.012020	0.375541
O22	O	2.851264	-0.213612	0.406337
O23	O	2.862890	-0.101942	0.570234
O24	O	2.684030	-0.098882	0.212771
C25	C	1.943608	-0.246912	0.415707
C26	C	1.965550	-0.336178	0.424915
C27	C	1.946967	-0.366648	0.311537
C28	C	1.967594	-0.450525	0.320193
C29	C	2.006797	-0.503929	0.442229
C30	C	2.025385	-0.473454	0.555616
C31	C	2.004765	-0.389580	0.546959
C32	C	2.070507	-0.757750	0.474256
C33	C	2.091123	-0.841629	0.482905
C34	C	2.033333	-0.818694	0.247481
C35	C	2.012709	-0.734819	0.238835
C36	C	2.031304	-0.704351	0.352222
C37	C	2.027879	-0.589664	0.451079
C38	C	2.010229	-0.618618	0.343370
C39	C	1.958335	-0.105444	0.623334
C40	C	1.989639	-0.104770	0.764539
C41	C	2.104862	0.038635	0.378726
C42	C	2.072540	0.127901	0.369526
C43	C	2.090135	-0.102831	0.171095
C44	C	2.048451	-0.103502	0.029889
C45	C	2.443608	-0.246912	0.415707
C46	C	2.465550	-0.336178	0.424915
C47	C	2.458335	-0.105444	0.623334
C48	C	2.489639	-0.104770	0.764539
C49	C	2.095933	-0.108463	0.837813
C50	C	2.125339	-0.107826	0.970488
C51	C	1.942146	-0.099806	0.956605
C52	C	1.912740	-0.100437	0.823930
C53	C	2.604862	0.038635	0.378726
C54	C	2.572540	0.127901	0.369526
C55	C	2.590135	-0.102831	0.171095
C56	C	2.548451	-0.103502	0.029889
C57	C	2.567446	-0.382193	0.436060
C58	C	2.588081	-0.466071	0.444732
C59	C	2.506818	-0.503932	0.442249
C60	C	2.404915	-0.457911	0.431107
C61	C	2.384283	-0.374036	0.422444
C62	C	2.643138	0.173915	0.358385
C63	C	2.612775	0.257792	0.349719
C64	C	2.511816	0.295653	0.352205
C65	C	2.441211	0.249633	0.363344
C66	C	2.471572	0.165758	0.372000
C67	C	2.595933	-0.108463	0.837813
C68	C	2.625339	-0.107826	0.970488
C69	C	2.442146	-0.099806	0.956605
C70	C	2.412740	-0.100437	0.823930
H71	H	1.915036	-0.323171	0.212162
H72	H	1.952462	-0.475329	0.227868
C73	C	2.297408	-0.096594	0.744295
C74	C	2.296382	-0.166133	0.692846
C75	C	2.190165	-0.162629	0.619483
H76	H	2.255743	-0.093979	0.798559
H77	H	2.267722	-0.049662	0.675144
H78	H	2.326053	-0.213052	0.761988
H79	H	2.338025	-0.168762	0.638562
H80	H	2.160479	-0.115697	0.550332
H81	H	2.148509	-0.160012	0.673756
H82	H	2.189456	-0.209806	0.584557
H83	H	2.633625	-0.351378	0.438076
H84	H	1.980794	-0.691341	0.139461
C85	C	2.013279	-0.851935	0.124536
C86	C	2.039753	-0.936820	0.158231
C87	C	2.021310	-0.967469	0.045005
H88	H	1.939458	-0.830952	0.070305
H89	H	2.056651	-0.836138	0.079113
H90	H	1.996380	-0.952609	0.203634
H91	H	2.113571	-0.957825	0.212445
H92	H	2.064683	-0.951672	-0.000418
H93	H	1.947489	-0.946480	-0.009218
H94	H	2.039280	-1.025066	0.067852
H95	H	1.978314	-0.575133	0.244010
H96	H	2.059800	-0.633155	0.550441
C97	C	2.331503	0.290728	0.365792
C98	C	2.250667	0.278716	0.260903
C99	C	2.149594	0.316573	0.263115
H100	H	2.325788	0.268011	0.445232
H101	H	2.323482	0.347282	0.358979
H102	H	2.258685	0.222174	0.267726
H103	H	2.256346	0.301436	0.181447
H104	H	2.141573	0.373127	0.256302
H105	H	2.143891	0.293853	0.342559
H106	H	2.094735	0.308435	0.191943
C107	C	2.240814	-0.112009	1.050040
C108	C	2.310082	-0.183999	1.047100
C109	C	2.416467	-0.187885	1.120382
H110	H	2.259434	-0.066779	1.014207
H111	H	2.247376	-0.111056	1.137594
H112	H	2.303525	-0.184945	0.959564
H113	H	2.291497	-0.229242	1.082943
H114	H	2.423029	-0.186932	1.207936
H115	H	2.435076	-0.142651	1.084542
H116	H	2.463477	-0.236733	1.118407
H117	H	2.523632	-0.572229	0.449303
H118	H	2.711891	-0.110833	1.030142
C119	C	2.316667	-0.499042	0.428139
C120	C	2.295897	-0.536116	0.321595
C121	C	2.214600	-0.574006	0.318800
H122	H	2.339286	-0.538982	0.506441
H123	H	2.252977	-0.459648	0.420187
H124	H	2.359574	-0.575506	0.329557
H125	H	2.273261	-0.496194	0.243276
H126	H	2.150910	-0.534612	0.310849
H127	H	2.237227	-0.613942	0.397107
H128	H	2.200490	-0.599159	0.246505
C129	C	1.858738	-0.094986	1.021218
C130	C	1.849122	-0.024997	1.071900
C131	C	1.772307	-0.020539	1.131445
H132	H	1.791153	-0.092829	0.958699
H133	H	1.880752	-0.141593	1.089771
H134	H	1.827103	0.021598	1.003355
H135	H	1.916687	-0.027138	1.134436
H136	H	1.794321	-0.067146	1.199998
H137	H	1.704728	-0.018384	1.068919
H138	H	1.765780	0.026944	1.165851
C139	C	2.698771	-0.515877	0.456741
C140	C	2.765500	-0.464756	0.457007
C141	C	2.867468	-0.510604	0.468048
H142	H	2.729263	-0.556106	0.535695
H143	H	2.692184	-0.541416	0.385075
H144	H	2.772090	-0.439231	0.528668
H145	H	2.735042	-0.424527	0.378061
H146	H	2.860881	-0.536143	0.396381
H147	H	2.897949	-0.550831	0.547003
H148	H	2.912752	-0.475924	0.468218
H149	H	2.123044	-0.885111	0.582285
C150	C	2.679268	-0.113030	0.773113
C151	C	2.646555	-0.044233	0.672213
C152	C	2.723291	-0.048416	0.612576
H153	H	2.746824	-0.115100	0.835604
H154	H	2.685940	-0.160464	0.738588
H155	H	2.639896	0.003188	0.706739
H156	H	2.579010	-0.042150	0.609695
H157	H	2.729963	-0.095850	0.578051
H158	H	2.790843	-0.050487	0.675076
H159	H	2.701102	-0.001742	0.544101
C160	C	2.090701	-0.724833	0.597505
C161	C	2.129413	-0.789555	0.706224
C162	C	2.148011	-0.759260	0.819786
H163	H	2.142477	-0.695220	0.603572
H164	H	2.025268	-0.689998	0.594733
H165	H	2.194837	-0.824376	0.708996
H166	H	2.077653	-0.819174	0.700200
H167	H	2.082578	-0.724425	0.817014
H168	H	2.199785	-0.729647	0.825840
H169	H	2.174270	-0.803168	0.893564
C170	C	2.752777	0.132979	0.355586
C171	C	2.808077	0.191246	0.343932
C172	C	2.909073	0.153575	0.341322
H173	H	2.793036	0.093099	0.433945
H174	H	2.743513	0.107789	0.283339
H175	H	2.817345	0.216423	0.416172
H176	H	2.767850	0.231129	0.265576
H177	H	2.899808	0.128385	0.269075
H178	H	2.949322	0.113695	0.419682
H179	H	2.946602	0.193104	0.333402
C180	C	2.689313	0.307812	0.337370
C181	C	2.640477	0.367009	0.220892
C182	C	2.710956	0.413092	0.209466
H183	H	2.705777	0.333446	0.408908
H184	H	2.753786	0.273279	0.337069
H185	H	2.576023	0.401538	0.221204
H186	H	2.624016	0.341398	0.149333
H187	H	2.775429	0.378558	0.209165
H188	H	2.727416	0.438720	0.281010
H189	H	2.677835	0.453257	0.130430
H190	H	2.414079	0.128297	0.381083
H191	H	2.057313	-0.516943	0.654980
C192	C	2.478718	0.386741	0.342553
C193	C	2.385499	0.423104	0.232294
C194	C	2.354994	0.507014	0.223355
H195	H	2.464795	0.396981	0.418318
H196	H	2.535185	0.408757	0.335493
H197	H	2.329045	0.401096	0.239365
H198	H	2.399397	0.412888	0.156510
H199	H	2.411461	0.529030	0.216295
H200	H	2.341076	0.517246	0.299126
H201	H	2.291748	0.531698	0.148539
H202	H	2.158550	-0.111990	0.789461
C203	C	2.273557	-0.324213	0.410267
C204	C	2.206808	-0.375327	0.409909
C205	C	2.104792	-0.329462	0.398676
H206	H	2.280018	-0.298641	0.481867
H207	H	2.243162	-0.284007	0.331267
H208	H	2.237196	-0.415518	0.488899
H209	H	2.200316	-0.400900	0.338312
H210	H	2.074397	-0.289256	0.319676
H211	H	2.111264	-0.303892	0.470279
H212	H	2.059488	-0.364134	0.398420
C213	C	2.024958	-0.356650	0.670203
C214	C	2.063677	-0.421368	0.778929
C215	C	2.082283	-0.391066	0.892486
H216	H	2.076732	-0.327038	0.676258
H217	H	1.959527	-0.321815	0.667434
H218	H	2.129098	-0.456190	0.781698
H219	H	2.011917	-0.450987	0.772918
H220	H	2.016853	-0.356231	0.889717
H221	H	2.134056	-0.361454	0.898528
H222	H	2.108546	-0.434972	0.966269
H223	H	1.826178	-0.097423	0.764265
H224	H	2.379543	-0.096280	1.004978
