data_functionalizedCrystal
_audit_creation_method	'MofGen! by Chris Wilmer'
_symmetry_space_group_name_H-M	'P1'
_symmetry_Int_Tables_number	1
_symmetry_cell_setting	triclinic
loop_
_symmetry_equiv_pos_as_xyz
  x,y,z
_cell_length_a	25.639242
_cell_length_b	29.839131
_cell_length_c	25.639234
_cell_angle_alpha	89.978055
_cell_angle_beta	89.980236
_cell_angle_gamma	90.036947
loop_
_atom_site_label
_atom_site_type_symbol
_atom_site_fract_x
_atom_site_fract_y
_atom_site_fract_z
Zn1	Zn	0.799203	-0.178951	-0.295739
Zn2	Zn	0.799126	-0.254069	-0.208302
Zn3	Zn	0.711783	-0.178948	-0.208303
Zn4	Zn	0.711720	-0.254049	-0.295692
O5	O	0.755458	-0.216504	-0.252009
O6	O	0.872358	-0.188925	-0.284160
O7	O	0.787533	-0.244111	-0.135137
O8	O	0.723438	-0.116081	-0.219922
O9	O	0.872301	-0.244114	-0.219920
O10	O	0.787665	-0.116084	-0.284161
O11	O	0.723363	-0.188919	-0.135138
O12	O	0.638609	-0.188900	-0.219876
O13	O	0.723331	-0.244080	-0.368864
O14	O	0.638563	-0.244077	-0.284081
O15	O	0.787604	-0.188906	-0.368898
O16	O	0.787473	-0.316933	-0.219875
O17	O	0.723256	-0.316919	-0.284080
C18	C	0.619615	-0.216486	-0.251974
C19	C	0.561501	-0.216490	-0.251971
C20	C	0.201123	-0.245283	-0.285409
C21	C	0.146519	-0.245285	-0.285417
O22	O	0.118269	-0.269744	-0.313817
N23	N	0.119219	-0.216517	-0.252043
C24	C	0.146526	-0.187740	-0.218663
O25	O	0.118291	-0.163270	-0.190277
C26	C	0.201129	-0.187735	-0.218658
C27	C	0.228426	-0.216509	-0.252030
C28	C	0.228420	-0.274054	-0.318778
C29	C	0.283021	-0.274052	-0.318769
C30	C	0.310324	-0.245278	-0.285390
C31	C	0.283027	-0.216507	-0.252021
C32	C	0.228435	-0.158957	-0.185281
C33	C	0.283042	-0.158954	-0.185279
C34	C	0.310340	-0.187728	-0.218651
C35	C	0.364931	-0.187731	-0.218633
N36	N	0.392231	-0.216500	-0.252006
C37	C	0.364927	-0.245273	-0.285385
C38	C	0.031855	-0.187751	-0.218677
C39	C	-0.022747	-0.187758	-0.218679
C40	C	-0.022751	-0.245303	-0.285434
C41	C	0.031853	-0.245298	-0.285429
C42	C	0.059155	-0.216520	-0.252051
C43	C	0.479592	-0.245267	-0.285363
C44	C	0.534198	-0.245263	-0.285350
C45	C	0.534196	-0.187717	-0.218597
C46	C	0.479596	-0.187722	-0.218609
C47	C	0.452295	-0.216498	-0.251996
O48	O	0.393215	-0.163283	-0.190249
O49	O	0.393169	-0.269735	-0.313771
C50	C	0.755363	-0.333227	-0.251983
C51	C	0.755371	-0.383161	-0.251990
C52	C	0.788956	-0.692799	-0.218627
C53	C	0.789021	-0.880472	-0.218647
O54	O	0.817501	-0.904733	-0.190260
N55	N	0.755566	-0.903946	-0.252049
C56	C	0.722096	-0.880499	-0.285450
O57	O	0.693646	-0.904771	-0.313865
C58	C	0.722034	-0.692827	-0.285432
C59	C	0.755487	-0.669355	-0.252024
C60	C	0.822407	-0.669328	-0.185222
C61	C	0.822388	-0.622413	-0.185215
C62	C	0.788919	-0.598969	-0.218613
C63	C	0.755469	-0.622440	-0.252018
C64	C	0.688567	-0.669380	-0.318836
C65	C	0.688555	-0.622459	-0.318829
C66	C	0.722008	-0.598988	-0.285422
C67	C	0.721981	-0.552080	-0.285409
N68	N	0.755435	-0.528607	-0.252007
C69	C	0.788905	-0.552051	-0.218609
C70	C	0.722130	-0.979029	-0.285457
C71	C	0.722144	-1.025947	-0.285461
C72	C	0.789070	-1.025918	-0.218658
C73	C	0.789052	-0.978999	-0.218652
C74	C	0.755584	-0.955556	-0.252055
C75	C	0.788863	-0.453525	-0.218597
C76	C	0.788840	-0.406605	-0.218592
C77	C	0.721916	-0.406639	-0.285396
C78	C	0.721937	-0.453554	-0.285400
C79	C	0.755415	-0.476996	-0.251999
O80	O	0.693519	-0.527791	-0.313784
O81	O	0.817358	-0.527770	-0.190207
C82	C	0.788975	-0.739715	-0.218633
C83	C	0.755524	-0.763186	-0.252038
C84	C	0.722055	-0.739742	-0.285436
C85	C	0.755539	-0.810104	-0.252042
C86	C	0.789008	-0.833548	-0.218644
C87	C	0.822462	-0.810074	-0.185242
C88	C	0.822444	-0.763159	-0.185235
C89	C	0.688600	-0.763216	-0.318838
C90	C	0.688621	-0.810131	-0.318841
C91	C	0.722090	-0.833575	-0.285443
C92	C	0.891831	-0.216522	-0.252045
C93	C	0.949945	-0.216530	-0.252060
C94	C	0.755469	-0.216491	-0.388382
C95	C	0.755474	-0.216486	-0.446496
C96	C	0.755567	-0.099326	-0.252047
C97	C	0.755613	-0.049391	-0.252063
C98	C	0.722042	-0.245159	-0.697666
C99	C	0.722032	-0.245169	-0.643062
O100	O	0.693557	-0.269592	-0.614805
N101	N	0.755494	-0.216450	-0.615770
C102	C	0.788962	-0.187715	-0.643086
O103	O	0.817423	-0.163288	-0.614858
C104	C	0.788969	-0.187703	-0.697689
C105	C	0.755509	-0.216428	-0.724978
C106	C	0.688584	-0.273880	-0.724955
C107	C	0.688594	-0.273870	-0.779555
C108	C	0.722061	-0.245139	-0.806867
C109	C	0.755519	-0.216418	-0.779579
C110	C	0.822434	-0.158967	-0.725004
C111	C	0.822437	-0.158957	-0.779611
C112	C	0.788978	-0.187682	-0.806900
C113	C	0.788996	-0.187677	-0.861491
N114	N	0.755535	-0.216396	-0.888782
C115	C	0.722068	-0.245127	-0.861471
C116	C	0.788946	-0.187742	-0.528415
C117	C	0.788943	-0.187756	-0.473813
C118	C	0.722012	-0.245209	-0.473793
C119	C	0.722018	-0.245197	-0.528396
C120	C	0.755485	-0.216461	-0.555707
C121	C	0.722091	-0.245105	-0.976136
C122	C	0.722106	-0.245094	-1.030741
C123	C	0.789035	-0.187640	-1.030757
C124	C	0.789022	-0.187652	-0.976156
C125	C	0.755547	-0.216386	-0.948847
O126	O	0.817456	-0.163265	-0.889782
O127	O	0.693607	-0.269546	-0.889705
C128	C	0.755477	-0.216484	-0.116167
C129	C	0.755573	-0.216363	-0.058053
H130	H	-0.044991	-0.268731	-0.312615
H131	H	0.816285	-0.164249	-1.053004
O132	O	0.202008	-0.130960	-0.152849
C133	C	0.207799	-0.073893	-0.086627
C134	C	0.237790	-0.105572	-0.123339
H135	H	0.236715	-0.053365	-0.062750
H136	H	0.182278	-0.050403	-0.110661
H137	H	0.182192	-0.094486	-0.059263
H138	H	0.263425	-0.085015	-0.150709
H139	H	0.263277	-0.129064	-0.099272
O140	O	0.058390	-0.273294	-0.317775
C141	C	0.120023	-0.333936	-0.324685
C142	C	0.089997	-0.302266	-0.287990
H143	H	0.145593	-0.357361	-0.300619
H144	H	0.091147	-0.354533	-0.348530
H145	H	0.145587	-0.313332	-0.352077
H146	H	0.064433	-0.322834	-0.260566
H147	H	0.118901	-0.281667	-0.264181
O148	O	0.560644	-0.159755	-0.186123
C149	C	0.554900	-0.102658	-0.119935
C150	C	0.524882	-0.134310	-0.156675
H151	H	0.526000	-0.082071	-0.096125
H152	H	0.580421	-0.123229	-0.092516
H153	H	0.580507	-0.079218	-0.143997
H154	H	0.499247	-0.157757	-0.132656
H155	H	0.499393	-0.113711	-0.184096
H156	H	0.816203	-0.164343	-0.550648
O157	O	0.854865	-0.599666	-0.152695
C158	C	0.880299	-0.585319	-0.063784
C159	C	0.843490	-0.611110	-0.100554
H160	H	0.871108	-0.594554	-0.021620
H161	H	0.922459	-0.594521	-0.072975
H162	H	0.874555	-0.547759	-0.069538
H163	H	0.849187	-0.648675	-0.094821
H164	H	0.801342	-0.601870	-0.091354
H165	H	0.305269	-0.135516	-0.158101
O166	O	0.855007	-0.692103	-0.152867
C167	C	0.925658	-0.744986	-0.145951
C168	C	0.888760	-0.719229	-0.182648
H169	H	0.952949	-0.766931	-0.170013
H170	H	0.949596	-0.720147	-0.122110
H171	H	0.901713	-0.766974	-0.118553
H172	H	0.912665	-0.697240	-0.210077
H173	H	0.864820	-0.744092	-0.206451
O174	O	0.560633	-0.273229	-0.317820
C175	C	0.554857	-0.330324	-0.384010
C176	C	0.524857	-0.298671	-0.347274
H177	H	0.525945	-0.350909	-0.407825
H178	H	0.580434	-0.309754	-0.411424
H179	H	0.580406	-0.353766	-0.359945
H180	H	0.499279	-0.275223	-0.371297
H181	H	0.499312	-0.319270	-0.319858
O182	O	0.821599	-0.956270	-0.186185
C183	C	0.887956	-0.961206	-0.119901
C184	C	0.851130	-0.986998	-0.156652
H185	H	0.911833	-0.986038	-0.096006
H186	H	0.915308	-0.939223	-0.143905
H187	H	0.863957	-0.939257	-0.092556
H188	H	0.875086	-1.008972	-0.184004
H189	H	0.823775	-1.008953	-0.132616
H190	H	0.694828	-0.268499	-0.953907
H191	H	0.694899	-1.045054	-0.312660
H192	H	0.661346	-0.297259	-0.801769
H193	H	0.661328	-0.297276	-0.702723
H194	H	0.694772	-0.268587	-0.550611
O195	O	0.854920	-0.832838	-0.152731
C196	C	0.880405	-0.847221	-0.063835
C197	C	0.843605	-0.821415	-0.100585
H198	H	0.871277	-0.837988	-0.021669
H199	H	0.874659	-0.884789	-0.069546
H200	H	0.922551	-0.837968	-0.073092
H201	H	0.801445	-0.830631	-0.091351
H202	H	0.849396	-0.783853	-0.094868
H203	H	0.661302	-0.603374	-0.346032
H204	H	0.849681	-0.135577	-0.702795
O205	O	0.058294	-0.159785	-0.186196
C206	C	0.052523	-0.102695	-0.120003
C207	C	0.022521	-0.134350	-0.156752
H208	H	0.023613	-0.082115	-0.096196
H209	H	0.078045	-0.123263	-0.092581
H210	H	0.078128	-0.079247	-0.144057
H211	H	-0.003113	-0.157804	-0.132740
H212	H	-0.002969	-0.113753	-0.184175
H213	H	0.457369	-0.164292	-0.191433
H214	H	0.816272	-0.164266	-0.953936
H215	H	0.694874	-0.959945	-0.312658
H216	H	0.816125	-0.472606	-0.191400
O217	O	0.821597	-1.048765	-0.186295
C218	C	0.851326	-1.121038	-0.156758
C219	C	0.814450	-1.095217	-0.193417
H220	H	0.845552	-1.158599	-0.162495
H221	H	0.893471	-1.111792	-0.166031
H222	H	0.842226	-1.111834	-0.114576
H223	H	0.823503	-1.104408	-0.235611
H224	H	0.772316	-1.104465	-0.184099
O225	O	0.821388	-0.383875	-0.186122
C226	C	0.887748	-0.388806	-0.119841
C227	C	0.850924	-0.414601	-0.156592
H228	H	0.911629	-0.413637	-0.095949
H229	H	0.915097	-0.366819	-0.143845
H230	H	0.863747	-0.366861	-0.092494
H231	H	0.874882	-0.436571	-0.183946
H232	H	0.823574	-0.436560	-0.132556
H233	H	0.661323	-0.688482	-0.346038
H234	H	0.206196	-0.297485	-0.345962
O235	O	0.689423	-0.476288	-0.317899
C236	C	0.623023	-0.471359	-0.384140
C237	C	0.659822	-0.445563	-0.347364
H238	H	0.599073	-0.446530	-0.407965
H239	H	0.646995	-0.493277	-0.411544
H240	H	0.595733	-0.493375	-0.360106
H241	H	0.687119	-0.423523	-0.371357
H242	H	0.635818	-0.423674	-0.319959
O243	O	0.689515	-0.273075	-0.447176
C244	C	0.659867	-0.298564	-0.363040
C245	C	0.696685	-0.266978	-0.393120
H246	H	0.665659	-0.293653	-0.319331
H247	H	0.617705	-0.290665	-0.373728
H248	H	0.669007	-0.334785	-0.373799
H249	H	0.687592	-0.230747	-0.382377
H250	H	0.738836	-0.274916	-0.382430
O251	O	0.854868	-0.740343	-0.152729
C252	C	0.861946	-0.687382	-0.082154
C253	C	0.825164	-0.713197	-0.118928
H254	H	0.837946	-0.665422	-0.054824
H255	H	0.885858	-0.712184	-0.058251
H256	H	0.889273	-0.665405	-0.106194
H257	H	0.797805	-0.735175	-0.094928
H258	H	0.801288	-0.688371	-0.142833
O259	O	0.854874	-0.130995	-0.806163
C260	C	0.861977	-0.070345	-0.867844
C261	C	0.825182	-0.101975	-0.837799
H262	H	0.837986	-0.046881	-0.893438
H263	H	0.885878	-0.049787	-0.838980
H264	H	0.889313	-0.090977	-0.893386
H265	H	0.797814	-0.081378	-0.812257
H266	H	0.801318	-0.122535	-0.866691
H267	H	0.661346	-0.744131	-0.346035
H268	H	-0.044968	-0.164332	-0.191499
H269	H	0.457371	-0.268698	-0.312552
H270	H	0.816195	-0.164371	-0.451599
O271	O	0.656105	-0.832859	-0.351345
C272	C	0.589708	-0.827923	-0.417588
C273	C	0.626508	-0.802131	-0.380811
H274	H	0.565762	-0.803091	-0.441413
H275	H	0.613678	-0.849842	-0.444992
H276	H	0.562414	-0.849937	-0.393556
H277	H	0.653809	-0.780093	-0.404801
H278	H	0.602506	-0.780240	-0.353406
O279	O	0.689626	-0.273061	-1.057190
C280	C	0.664197	-0.349476	-1.073890
C281	C	0.701004	-0.317856	-1.043900
H282	H	0.673390	-0.385699	-1.063164
H283	H	0.622036	-0.341619	-1.063136
H284	H	0.669940	-0.344515	-1.117607
H285	H	0.695307	-0.322799	-1.000176
H286	H	0.743152	-0.325721	-1.054697
O287	O	0.309453	-0.302014	-0.351240
C288	C	0.303666	-0.359106	-0.417433
C289	C	0.273672	-0.327454	-0.380691
H290	H	0.274750	-0.379690	-0.441246
H291	H	0.329240	-0.338535	-0.444850
H292	H	0.329218	-0.382550	-0.393373
H293	H	0.248091	-0.304004	-0.404709
H294	H	0.248131	-0.348054	-0.353273
H295	H	0.694664	-0.387543	-0.312587
