data_functionalizedCrystal
_audit_creation_method	'MofGen! by Chris Wilmer'
_symmetry_space_group_name_H-M	'P1'
_symmetry_Int_Tables_number	1
_symmetry_cell_setting	triclinic
loop_
_symmetry_equiv_pos_as_xyz
  x,y,z
_cell_length_a	14.908571
_cell_length_b	18.101397
_cell_length_c	14.908854
_cell_angle_alpha	86.667946
_cell_angle_beta	89.795614
_cell_angle_gamma	86.716412
loop_
_atom_site_label
_atom_site_type_symbol
_atom_site_fract_x
_atom_site_fract_y
_atom_site_fract_z
Zn1	Zn	1.345317	-0.330803	-0.587565
Zn2	Zn	1.845317	0.169197	-0.087565
Zn3	Zn	1.353893	-0.462187	-0.437189
Zn4	Zn	1.853893	0.037813	0.062811
Zn5	Zn	1.203627	-0.331644	-0.428559
Zn6	Zn	1.703627	0.168356	0.071441
Zn7	Zn	1.194925	-0.447886	-0.578846
Zn8	Zn	1.694925	0.052114	-0.078846
O9	O	1.274440	-0.393130	-0.508040
O10	O	1.774440	0.106870	-0.008040
O11	O	1.472281	-0.353865	-0.574878
O12	O	1.972281	0.146135	-0.074878
O13	O	1.341190	-0.451207	-0.310216
O14	O	1.841190	0.048793	0.189784
O15	O	1.222475	-0.227900	-0.449689
O16	O	1.722475	0.272100	0.050311
O17	O	1.478581	-0.450392	-0.464398
O18	O	1.978581	0.049608	0.035602
O19	O	1.326574	-0.227283	-0.566510
O20	O	1.826574	0.272717	-0.066510
O21	O	1.230791	-0.355297	-0.303876
O22	O	1.730791	0.144703	0.196124
O23	O	1.076646	-0.341430	-0.441234
O24	O	1.576646	0.158570	0.058766
O25	O	1.207644	-0.426018	-0.705831
O26	O	1.707644	0.073982	-0.205831
O27	O	1.070253	-0.426833	-0.551649
O28	O	1.570253	0.073167	-0.051649
O29	O	1.318136	-0.339998	-0.712237
O30	O	1.818136	0.160002	-0.212237
O31	O	1.332753	-0.563922	-0.455943
O32	O	1.832753	-0.063922	0.044057
O33	O	1.215960	-0.553415	-0.560018
O34	O	1.715960	-0.053415	-0.060018
C35	C	1.040824	-0.382671	-0.494559
C36	C	1.540824	0.117329	0.005441
C37	C	0.940881	-0.378214	-0.488814
C38	C	1.440881	0.121786	0.011186
C39	C	0.746478	-0.458923	-0.592838
C40	C	1.246478	0.041077	-0.092838
C41	C	0.652572	-0.454737	-0.587442
C42	C	1.152572	0.045263	-0.087442
C43	C	0.659162	-0.365653	-0.472632
C44	C	1.159162	0.134347	0.027368
C45	C	0.753068	-0.369839	-0.478028
C46	C	1.253068	0.130161	0.021972
C47	C	0.796722	-0.416476	-0.538132
C48	C	1.296722	0.083524	-0.038132
C49	C	0.890630	-0.420665	-0.543522
C50	C	1.390630	0.079335	-0.043522
C51	C	0.897218	-0.331578	-0.428717
C52	C	1.397218	0.168422	0.071283
C53	C	0.803312	-0.327392	-0.423322
C54	C	1.303312	0.172608	0.076678
C55	C	1.274366	-0.585539	-0.507992
C56	C	1.774366	-0.085539	-0.007992
C57	C	1.274415	-0.667855	-0.508006
C58	C	1.774415	-0.167855	-0.008006
C59	C	1.274525	-0.966947	-0.508095
C60	C	1.774525	-0.466947	-0.008095
C61	C	1.347825	-0.942202	-0.442417
C62	C	1.847825	-0.442202	0.057583
C63	C	1.348054	-0.856585	-0.442611
C64	C	1.848054	-0.356585	0.057389
C65	C	1.274470	-0.818564	-0.508050
C66	C	1.774470	-0.318564	-0.008050
C67	C	1.294689	-0.845966	-0.604307
C68	C	1.794689	-0.345966	-0.104307
C69	C	1.295248	-0.931654	-0.603959
C70	C	1.795248	-0.431654	-0.103959
C71	C	1.180774	-0.932419	-0.478325
C72	C	1.680774	-0.432419	0.021675
C73	C	1.181366	-0.846897	-0.476236
C74	C	1.681366	-0.346897	0.023764
C75	C	1.274438	-0.734704	-0.508030
C76	C	1.774438	-0.234704	-0.008030
C77	C	1.274559	-1.050807	-0.508121
C78	C	1.774559	-0.550807	-0.008121
C79	C	1.508969	-0.403630	-0.521573
C80	C	2.008969	0.096370	-0.021573
C81	C	1.608911	-0.408104	-0.527341
C82	C	2.108911	0.091896	-0.027341
C83	C	1.260963	-0.381319	-0.742572
C84	C	1.760963	0.118681	-0.242572
C85	C	1.255220	-0.376286	-0.842515
C86	C	1.755220	0.123714	-0.342515
C87	C	1.274538	-0.199969	-0.508109
C88	C	1.774538	0.300031	-0.008109
C89	C	1.274580	-0.117656	-0.508139
C90	C	1.774580	0.382344	-0.008139
C91	C	1.359408	-0.466697	-1.036926
C92	C	1.859408	0.033303	-0.536926
C93	C	1.354015	-0.461971	-1.130832
C94	C	1.854015	0.038029	-0.630832
C95	C	1.239045	-0.362103	-1.124236
C96	C	1.739045	0.137897	-0.624236
C97	C	1.244439	-0.366830	-1.030330
C98	C	1.744439	0.133170	-0.530330
C99	C	1.304621	-0.419129	-0.986678
C100	C	1.804621	0.080871	-0.486678
C101	C	1.310009	-0.423859	-0.892770
C102	C	1.810009	0.076141	-0.392770
C103	C	1.195045	-0.323988	-0.886176
C104	C	1.695045	0.176012	-0.386176
C105	C	1.189652	-0.319262	-0.980082
C106	C	1.689652	0.180738	-0.480082
C107	C	1.287917	-0.404844	-0.274423
C108	C	1.787917	0.095156	0.225577
C109	C	1.293834	-0.409676	-0.174490
C110	C	1.793834	0.090324	0.325510
H111	H	0.782022	-0.496901	-0.641771
H112	H	1.282022	0.003099	-0.141771
Br113	Br	1.089858	-0.958108	-0.557941
Br114	Br	1.589858	-0.458108	-0.057941
Br115	Br	1.428376	-0.526527	-1.199024
Br116	Br	1.928376	-0.026527	-0.699024
Br117	Br	1.120651	-0.259454	-0.817976
Br118	Br	1.620651	0.240546	-0.317976
H119	H	0.767756	-0.289419	-0.374390
H120	H	1.267756	0.210581	0.125610
H121	H	0.926172	-0.458641	-0.592460
H122	H	1.426172	0.041359	-0.092460
H123	H	1.408415	-0.509278	-1.001384
H124	H	1.908415	-0.009278	-0.501384
H125	H	0.623602	-0.327678	-0.423705
H126	H	1.123602	0.172322	0.076295
Br127	Br	0.584384	-0.512341	-0.661694
Br128	Br	1.084384	-0.012341	-0.161694
Br129	Br	0.965413	-0.273978	-0.354458
Br130	Br	1.465413	0.226022	0.145542
H131	H	1.336038	-0.838430	-0.371409
H132	H	1.836038	-0.338430	0.128591
Br133	Br	1.157388	-0.291121	-1.183494
Br134	Br	1.657388	0.208879	-0.683494
H135	H	1.336015	-0.965670	-0.371015
H136	H	1.836015	-0.465670	0.128985
Br137	Br	1.463136	-0.981876	-0.475620
Br138	Br	1.963136	-0.481876	0.024380
Br139	Br	1.391679	-0.494839	-0.833528
Br140	Br	1.891679	0.005161	-0.333528
H141	H	1.242697	-0.820746	-0.654794
H142	H	1.742697	-0.320746	-0.154794
Br143	Br	1.107984	-0.248284	-1.039332
Br144	Br	1.607984	0.251716	-0.539332
H145	H	1.362256	-0.826484	-0.629191
H146	H	1.862256	-0.326484	-0.129191
Br147	Br	1.463986	-0.826247	-0.476167
Br148	Br	1.963986	-0.326247	0.023833
Br149	Br	1.409193	-0.968321	-0.644928
Br150	Br	1.909193	-0.468321	-0.144928
Br151	Br	1.209624	-0.958121	-0.688780
Br152	Br	1.709624	-0.458121	-0.188780
H153	H	1.161323	-0.956441	-0.409066
H154	H	1.661323	-0.456441	0.090934
Br155	Br	1.086175	-0.803270	-0.549394
Br156	Br	1.586175	-0.303270	-0.049394
Br157	Br	1.155781	-0.817515	-0.358126
Br158	Br	1.655781	-0.317515	0.141874
