data_functionalizedCrystal
_audit_creation_method	'MofGen! by Chris Wilmer'
_symmetry_space_group_name_H-M	'P1'
_symmetry_Int_Tables_number	1
_symmetry_cell_setting	triclinic
loop_
_symmetry_equiv_pos_as_xyz
  x,y,z
_cell_length_a	13.635800
_cell_length_b	9.514072
_cell_length_c	17.982968
_cell_angle_alpha	88.137076
_cell_angle_beta	102.451960
_cell_angle_gamma	61.156579
loop_
_atom_site_label
_atom_site_type_symbol
_atom_site_fract_x
_atom_site_fract_y
_atom_site_fract_z
V1	V	2.050170	-0.223713	0.238149
O2	O	1.999657	0.009202	0.233002
O3	O	2.067580	-0.442095	0.237111
O4	O	2.022898	-0.220951	0.341745
O5	O	2.044649	-0.213473	0.127644
V6	V	2.286991	-0.195773	0.224860
O7	O	2.191638	-0.285000	0.267300
O8	O	2.370621	-0.134485	0.195709
O9	O	2.157977	0.022610	0.225898
O10	O	2.396202	-0.428688	0.230008
O11	O	2.351210	-0.206012	0.335366
O12	O	2.202660	-0.198535	0.121265
V13	V	2.550170	-0.223713	0.238149
O14	O	2.499657	0.009202	0.233002
O15	O	2.567580	-0.442095	0.237111
O16	O	2.522898	-0.220951	0.341745
O17	O	2.544649	-0.213473	0.127644
V18	V	2.786991	-0.195773	0.224860
O19	O	2.691638	-0.285000	0.267300
O20	O	2.870621	-0.134485	0.195709
O21	O	2.657977	0.022610	0.225898
O22	O	2.896202	-0.428688	0.230008
O23	O	2.851210	-0.206012	0.335366
O24	O	2.702660	-0.198535	0.121265
C25	C	2.000303	-0.495311	0.233507
C26	C	2.055160	-0.673847	0.233349
C27	C	1.943305	-0.213217	0.366977
C28	C	1.961923	-0.212404	0.451670
C29	C	2.056928	0.075817	0.229501
C30	C	1.991689	0.254351	0.229664
C31	C	2.113925	-0.206274	0.096029
C32	C	2.084924	-0.207079	0.011334
C33	C	2.500303	-0.495311	0.233507
C34	C	2.555160	-0.673847	0.233349
C35	C	2.443305	-0.213217	0.366977
C36	C	2.461923	-0.212404	0.451670
C37	C	2.063164	-0.220070	0.495363
C38	C	2.080652	-0.219305	0.574941
C39	C	1.996902	-0.210885	0.610827
C40	C	1.895651	-0.203214	0.567129
C41	C	1.878161	-0.203967	0.487551
C42	C	1.966185	-0.200172	0.888057
C43	C	1.983686	-0.199424	0.967642
C44	C	2.168677	-0.215510	0.975448
C45	C	2.151186	-0.216263	0.895870
C46	C	2.049935	-0.208583	0.852178
C47	C	2.030973	-0.209410	0.765890
C48	C	2.015867	-0.210070	0.697115
C49	C	2.556928	0.075817	0.229501
C50	C	2.491689	0.254351	0.229664
C51	C	2.613925	-0.206274	0.096029
C52	C	2.584924	-0.207079	0.011334
C53	C	2.563166	-0.220054	0.495349
C54	C	2.580667	-0.219269	0.574926
C55	C	2.496929	-0.210845	0.610825
C56	C	2.395676	-0.203190	0.567141
C57	C	2.378172	-0.203963	0.487564
C58	C	2.486428	-0.215484	-0.024545
C59	C	2.459158	-0.216222	-0.104126
C60	C	2.530389	-0.208565	-0.147824
C61	C	2.628891	-0.200154	-0.111940
C62	C	2.656155	-0.199405	-0.032362
H63	H	2.151484	-0.748975	0.236409
H64	H	2.131369	-0.226937	0.466152
C65	C	1.854823	-0.191745	0.840008
H66	H	1.807459	-0.186643	0.872781
H67	H	1.813523	-0.097570	0.801590
H68	H	1.874784	-0.285853	0.816016
C69	C	2.500398	-0.209408	-0.235357
H70	H	2.556921	-0.203637	-0.256250
H71	H	2.499732	-0.306683	-0.244697
H72	H	2.426038	-0.118400	-0.259128
H73	H	2.327502	-0.196332	0.596382
H74	H	2.395369	-0.670525	0.226592
H75	H	1.827459	-0.196349	0.596352
C76	C	2.692049	-0.227707	0.622970
H77	H	2.690485	-0.226021	0.675504
H78	H	2.757803	-0.325279	0.618742
H79	H	2.696560	-0.136998	0.604305
H80	H	2.736365	-0.192570	-0.003155
C81	C	2.192013	-0.227729	0.622999
H82	H	2.239392	-0.232868	0.590231
H83	H	2.172055	-0.133629	0.646989
H84	H	2.233311	-0.321911	0.661420
H85	H	2.651484	-0.748975	0.236409
C86	C	2.266810	-0.195575	0.439528
H87	H	2.219459	-0.190466	0.472312
H88	H	2.225496	-0.101414	0.401102
H89	H	2.286774	-0.289698	0.415548
C90	C	2.243309	-0.225518	0.856399
H91	H	2.306106	-0.229958	0.893818
H92	H	2.270958	-0.320277	0.832727
H93	H	2.209697	-0.131994	0.818308
H94	H	2.511196	-0.210217	0.675623
C95	C	1.766800	-0.195544	0.439490
H96	H	1.719430	-0.190438	0.472259
H97	H	1.725506	-0.101370	0.401072
H98	H	1.786762	-0.289652	0.415498
H99	H	2.428415	-0.221719	0.011025
C100	C	1.861570	-0.644174	0.225520
H101	H	1.840523	-0.533457	0.226147
H102	H	1.817343	-0.653315	0.179256
H103	H	1.846573	-0.683128	0.268613
C104	C	2.707241	-0.191750	-0.160014
H105	H	2.676894	-0.193422	-0.212543
H106	H	2.709747	-0.094199	-0.155797
H107	H	2.783423	-0.282484	-0.141366
C108	C	2.280055	-0.223956	1.023508
H109	H	2.327433	-0.229102	0.990739
H110	H	2.260114	-0.129867	1.047505
H111	H	2.321343	-0.318147	1.061923
C112	C	1.891595	-0.190283	1.007124
H113	H	1.828796	-0.185842	0.969708
H114	H	1.925256	-0.283836	1.045198
H115	H	1.863920	-0.095546	1.030818
H116	H	2.631364	-0.226918	0.466131
H117	H	2.378948	-0.223070	-0.133331
