data_functionalizedCrystal
_audit_creation_method	'MofGen! by Chris Wilmer'
_symmetry_space_group_name_H-M	'P1'
_symmetry_Int_Tables_number	1
_symmetry_cell_setting	triclinic
loop_
_symmetry_equiv_pos_as_xyz
  x,y,z
_cell_length_a	21.395362
_cell_length_b	12.594516
_cell_length_c	12.594517
_cell_angle_alpha	89.999530
_cell_angle_beta	90.021704
_cell_angle_gamma	90.031933
loop_
_atom_site_label
_atom_site_type_symbol
_atom_site_fract_x
_atom_site_fract_y
_atom_site_fract_z
Zn1	Zn	0.957786	-0.423539	0.602417
Zn2	Zn	0.957756	-0.601467	0.424444
Zn3	Zn	0.853041	-0.423552	0.424386
Zn4	Zn	0.852997	-0.601525	0.602315
O5	O	0.905395	-0.512521	0.513391
O6	O	1.045460	-0.447112	0.578875
O7	O	0.943871	-0.577847	0.275491
O8	O	0.866967	-0.274604	0.448021
O9	O	1.045437	-0.577834	0.448120
O10	O	0.943922	-0.274595	0.578819
O11	O	0.866938	-0.447133	0.275448
O12	O	0.765357	-0.447190	0.447922
O13	O	0.866891	-0.577935	0.751274
O14	O	0.765325	-0.577947	0.578646
O15	O	0.943879	-0.447169	0.751349
O16	O	0.943828	-0.750420	0.448021
O17	O	0.866862	-0.750463	0.578702
C18	C	0.742607	-0.512577	0.513267
C19	C	0.672966	-0.512627	0.513240
C20	C	0.640252	-0.580802	0.581205
C21	C	0.574817	-0.580776	0.581253
C22	C	0.542098	-0.512586	0.513315
C23	C	0.574819	-0.444398	0.445345
C24	C	0.640253	-0.444418	0.445307
C25	C	0.438393	-0.503991	0.417494
C26	C	0.372960	-0.503978	0.417530
C27	C	0.340277	-0.512516	0.513433
C28	C	0.373034	-0.521090	0.609302
C29	C	0.438468	-0.521110	0.609265
C30	C	0.471145	-0.512556	0.513349
C31	C	0.236610	-0.580667	0.581456
C32	C	0.171174	-0.580633	0.581505
C33	C	0.171178	-0.444261	0.445588
C34	C	0.236613	-0.444289	0.445548
C35	C	0.269326	-0.512497	0.513481
C36	C	0.905354	-0.789062	0.513380
C37	C	0.905393	-0.907367	0.513411
C38	C	0.863528	-0.976683	0.584439
C39	C	0.848280	-1.047510	0.487307
C40	C	0.920698	-1.047339	0.610560
C41	C	0.890116	-0.976636	0.416228
C42	C	0.962560	-0.976459	0.539546
C43	C	0.947334	-1.047254	0.442348
C44	C	1.068818	-0.512465	0.513515
C45	C	1.138459	-0.512441	0.513568
C46	C	0.905383	-0.512557	0.791011
C47	C	0.905378	-0.512572	0.909317
C48	C	0.905453	-0.234900	0.513424
C49	C	0.905478	-0.116594	0.513439
C50	C	0.863504	-0.583668	1.049293
C51	C	0.848199	-0.486579	0.978479
C52	C	0.920655	-0.609650	0.978559
C53	C	0.890039	-0.415391	1.049289
C54	C	0.962522	-0.538528	1.049375
C55	C	0.947239	-0.441372	0.978593
C56	C	0.905393	-0.512518	1.236850
C57	C	0.905373	-0.512531	1.118544
H58	H	0.263246	-0.636201	0.636776
H59	H	0.465137	-0.528088	0.687325
C60	C	0.948293	-1.003517	0.790100
C61	C	0.938133	-1.089264	0.721450
H62	H	0.959057	-1.029400	0.858557
H63	H	0.911307	-0.962113	0.794820
H64	H	0.981414	-0.960897	0.763486
H65	H	0.905009	-1.131880	0.748060
H66	H	0.975124	-1.130686	0.716733
C67	C	0.755855	-0.637284	1.055424
C68	C	0.815669	-0.664751	1.091216
H69	H	0.726324	-0.687334	1.081313
H70	H	0.755267	-0.637413	0.980015
H71	H	0.745406	-0.568480	1.080686
H72	H	0.826120	-0.733552	1.065947
H73	H	0.816258	-0.664633	1.166641
H74	H	0.877150	-0.945709	0.334059
C75	C	0.816493	-0.823666	0.665230
C76	C	0.815654	-0.934836	0.665410
H77	H	0.786939	-0.797834	0.715220
H78	H	0.806045	-0.798426	0.596413
H79	H	0.857062	-0.799346	0.683954
H80	H	0.775085	-0.959156	0.646679
H81	H	0.826098	-0.960086	0.734243
H82	H	0.799975	-1.078741	0.465224
H83	H	0.799872	-0.464602	0.947339
C84	C	0.979046	-1.052954	0.259588
C85	C	0.995177	-1.088839	0.361190
H86	H	1.008578	-1.078635	0.209484
H87	H	0.979034	-0.977543	0.258737
H88	H	0.938588	-1.078364	0.241630
H89	H	1.035633	-1.063422	0.379150
H90	H	0.995195	-1.164265	0.362043
H91	H	0.144539	-0.636148	0.636858
H92	H	0.933580	-0.691766	0.947491
H93	H	1.010854	-0.945230	0.561676
H94	H	0.666882	-0.636341	0.636523
H95	H	0.666889	-0.388898	0.389961
C96	C	0.872632	-0.305507	1.202219
C97	C	0.872506	-0.304509	1.091045
H98	H	0.861802	-0.237057	1.227997
H99	H	0.913097	-0.324058	1.227078
H100	H	0.843076	-0.356072	1.226978
H101	H	0.902066	-0.253949	1.066286
H102	H	0.832035	-0.285944	1.066176
H103	H	0.982649	-0.381162	0.947746
C104	C	0.379687	-0.537970	0.798867
C105	C	0.337118	-0.530451	0.714733
H106	H	0.357511	-0.543750	0.863951
H107	H	0.405243	-0.476296	0.800317
H108	H	0.405172	-0.598976	0.789397
H109	H	0.311636	-0.469439	0.724199
H110	H	0.311552	-0.592131	0.713283
C111	C	0.070877	-0.383728	0.385245
C112	C	0.135220	-0.369336	0.370875
H113	H	0.048678	-0.337482	0.339106
H114	H	0.060185	-0.368233	0.456773
H115	H	0.060131	-0.455227	0.369584
H116	H	0.145967	-0.297839	0.386544
H117	H	0.145917	-0.384824	0.299331
C118	C	0.256707	-0.392155	0.265389
C119	C	0.272577	-0.369359	0.370826
H120	H	0.278913	-0.345896	0.219260
H121	H	0.213061	-0.382379	0.255697
H122	H	0.267396	-0.463650	0.249701
H123	H	0.261884	-0.297866	0.386516
H124	H	0.316234	-0.379126	0.380523
H125	H	1.010835	-0.560534	1.080537
H126	H	0.548176	-0.636292	0.636603
H127	H	0.464999	-0.497034	0.339393
C128	C	0.379460	-0.487040	0.227971
C129	C	0.336957	-0.494551	0.312154
H130	H	0.357233	-0.481213	0.162916
H131	H	0.404953	-0.548738	0.226464
H132	H	0.405013	-0.426062	0.237434
H133	H	0.311407	-0.555534	0.302695
H134	H	0.311453	-0.432847	0.313659
C135	C	0.554628	-0.392242	0.265207
C136	C	0.538861	-0.369442	0.370661
H137	H	0.532432	-0.345957	0.219103
H138	H	0.543864	-0.463717	0.249523
H139	H	0.598282	-0.382495	0.255476
H140	H	0.495207	-0.379196	0.380394
H141	H	0.549621	-0.297949	0.386350
