data_functionalizedCrystal
_audit_creation_method	'MofGen! by Chris Wilmer'
_symmetry_space_group_name_H-M	'P1'
_symmetry_Int_Tables_number	1
_symmetry_cell_setting	triclinic
loop_
_symmetry_equiv_pos_as_xyz
  x,y,z
_cell_length_a	17.077404
_cell_length_b	16.120444
_cell_length_c	17.077396
_cell_angle_alpha	87.130511
_cell_angle_beta	90.019501
_cell_angle_gamma	92.926816
loop_
_atom_site_label
_atom_site_type_symbol
_atom_site_fract_x
_atom_site_fract_y
_atom_site_fract_z
Zn1	Zn	1.184189	-0.331904	0.459677
Zn2	Zn	1.517522	0.001429	0.793010
Zn3	Zn	1.850855	0.334763	1.126344
Zn4	Zn	1.177431	-0.471328	0.335063
Zn5	Zn	1.510764	-0.137995	0.668396
Zn6	Zn	1.844097	0.195338	1.001729
Zn7	Zn	1.052919	-0.331933	0.328426
Zn8	Zn	1.386252	0.001400	0.661760
Zn9	Zn	1.719586	0.334734	0.995093
Zn10	Zn	1.046226	-0.471279	0.466284
Zn11	Zn	1.379559	-0.137946	0.799617
Zn12	Zn	1.712892	0.195388	1.132951
O13	O	1.115191	-0.401611	0.397363
O14	O	1.448524	-0.068278	0.730696
O15	O	1.781858	0.265056	1.064029
O16	O	1.293139	-0.350407	0.443159
O17	O	1.626472	-0.017074	0.776492
O18	O	1.959805	0.316259	1.109826
O19	O	1.160887	-0.452870	0.224337
O20	O	1.494220	-0.119537	0.557670
O21	O	1.827554	0.213796	0.891004
O22	O	1.075961	-0.215263	0.340295
O23	O	1.409295	0.118070	0.673628
O24	O	1.742628	0.451404	1.006961
O25	O	1.288174	-0.452842	0.351605
O26	O	1.621507	-0.119509	0.684939
O27	O	1.954840	0.213825	1.018272
O28	O	1.172405	-0.215241	0.436724
O29	O	1.505738	0.118092	0.770057
O30	O	1.839071	0.451425	1.103391
O31	O	1.069409	-0.350457	0.219461
O32	O	1.402742	-0.017124	0.552795
O33	O	1.736075	0.316210	0.886128
O34	O	0.942185	-0.350409	0.346701
O35	O	1.275518	-0.017076	0.680035
O36	O	1.608851	0.316257	1.013368
O37	O	1.064554	-0.452758	0.575253
O38	O	1.397887	-0.119424	0.908586
O39	O	1.731221	0.213909	1.241920
O40	O	0.937267	-0.452786	0.447984
O41	O	1.270601	-0.119453	0.781318
O42	O	1.603934	0.213881	1.114651
O43	O	1.165915	-0.350359	0.570399
O44	O	1.499248	-0.017026	0.903732
O45	O	1.832581	0.316307	1.237066
O46	O	1.154397	-0.587988	0.358012
O47	O	1.487730	-0.254655	0.691345
O48	O	1.821064	0.078679	1.024678
O49	O	1.058001	-0.587952	0.454419
O50	O	1.391334	-0.254618	0.787753
O51	O	1.724668	0.078715	1.121086
C52	C	0.911244	-0.401596	0.397340
C53	C	1.244577	-0.068263	0.730673
C54	C	1.577911	0.265071	1.064007
C55	C	0.823993	-0.401610	0.397350
C56	C	1.157327	-0.068276	0.730683
C57	C	1.490660	0.265057	1.064017
C58	C	0.780459	-0.454998	0.450012
C59	C	1.113793	-0.121664	0.783345
C60	C	1.447126	0.211669	1.116678
C61	C	0.698479	-0.454999	0.450024
C62	C	1.031812	-0.121666	0.783358
C63	C	1.365146	0.211667	1.116691
C64	C	0.660034	-0.401617	0.397371
C65	C	0.993367	-0.068283	0.730704
C66	C	1.326700	0.265050	1.064038
C67	C	0.703574	-0.348223	0.344707
C68	C	1.036907	-0.014890	0.678040
C69	C	1.370240	0.318444	1.011374
C70	C	0.785553	-0.348217	0.344699
C71	C	1.118886	-0.014884	0.678032
C72	C	1.452220	0.318449	1.011365
C73	C	0.532703	-0.348239	0.344727
C74	C	0.866036	-0.014906	0.678060
C75	C	1.199370	0.318427	1.011393
C76	C	0.450718	-0.348246	0.344734
C77	C	0.784051	-0.014912	0.678067
C78	C	1.117385	0.318421	1.011400
C79	C	0.445629	-0.455021	0.450052
C80	C	0.778962	-0.121688	0.783386
C81	C	1.112296	0.211646	1.116719
C82	C	0.527608	-0.455016	0.450044
C83	C	0.860941	-0.121682	0.783377
C84	C	1.194275	0.211651	1.116711
C85	C	0.571142	-0.401623	0.397379
C86	C	0.904476	-0.068289	0.730712
C87	C	1.237809	0.265044	1.064045
C88	C	1.104761	-0.618220	0.407670
C89	C	1.438094	-0.284887	0.741003
C90	C	1.771427	0.048446	1.074336
C91	C	1.100370	-0.710886	0.412105
C92	C	1.433704	-0.377553	0.745439
C93	C	1.767037	-0.044220	1.078772
C94	C	1.138158	-0.921827	0.374521
C95	C	1.471492	-0.588494	0.707854
C96	C	1.804825	-0.255161	1.041188
C97	C	1.092369	-0.880544	0.420212
C98	C	1.425703	-0.547210	0.753546
C99	C	1.759036	-0.213877	1.086879
C100	C	1.096822	-0.786138	0.415700
C101	C	1.430156	-0.452804	0.749034
C102	C	1.763489	-0.119471	1.082367
C103	C	1.133706	-1.016242	0.379032
C104	C	1.467039	-0.682909	0.712365
C105	C	1.800373	-0.349575	1.045699
C106	C	1.319935	-0.401627	0.397385
C107	C	1.653268	-0.068293	0.730719
C108	C	1.986601	0.265040	1.064052
C109	C	1.407184	-0.401634	0.397395
C110	C	1.740517	-0.068300	0.730729
C111	C	2.073851	0.265033	1.064062
C112	C	1.115241	-0.401550	0.602104
C113	C	1.448575	-0.068216	0.935437
C114	C	1.781908	0.265117	1.268771
C115	C	1.115263	-0.401523	0.689353
C116	C	1.448596	-0.068190	1.022686
C117	C	1.781930	0.265143	1.356019
C118	C	1.125684	-0.184156	0.387032
C119	C	1.459017	0.149177	0.720366
C120	C	1.792350	0.482511	1.053699
C121	C	1.130155	-0.091490	0.382630
C122	C	1.463488	0.241844	0.715963
C123	C	1.796821	0.575177	1.049297
C124	C	1.115189	-0.401612	0.193415
C125	C	1.448522	-0.068279	0.526748
C126	C	1.781856	0.265055	0.860081
C127	C	1.115331	-0.401403	0.106155
C128	C	1.448664	-0.068070	0.439489
C129	C	1.781997	0.265263	0.772822
C130	C	1.168043	-0.348200	0.727816
C131	C	1.501377	-0.014867	1.061150
C132	C	1.834710	0.318466	1.394483
C133	C	1.168054	-0.348173	0.809795
C134	C	1.501388	-0.014839	1.143129
C135	C	1.834721	0.318494	1.476462
C136	C	1.115288	-0.401473	0.853310
C137	C	1.448621	-0.068139	1.186643
C138	C	1.781954	0.265194	1.519976
C139	C	1.062501	-0.454798	0.814840
C140	C	1.395835	-0.121465	1.148174
C141	C	1.729168	0.211868	1.481507
C142	C	1.062488	-0.454821	0.732862
C143	C	1.395821	-0.121488	1.066196
C144	C	1.729154	0.211845	1.399529
C145	C	1.062535	-0.454748	0.985708
C146	C	1.395869	-0.121415	1.319041
C147	C	1.729202	0.211918	1.652375
C148	C	1.062550	-0.454727	1.067692
C149	C	1.395884	-0.121393	1.401025
C150	C	1.729217	0.211940	1.734358
C151	C	1.168102	-0.348099	1.062641
C152	C	1.501436	-0.014766	1.395974
C153	C	1.834769	0.318567	1.729308
C154	C	1.168088	-0.348122	0.980663
C155	C	1.501422	-0.014789	1.313997
C156	C	1.834755	0.318544	1.647330
C157	C	1.115303	-0.401449	0.942200
C158	C	1.448636	-0.068116	1.275533
C159	C	1.781970	0.265217	1.608866
H160	H	0.672265	-0.304754	0.301839
H161	H	1.005599	0.028579	0.635172
H162	H	1.338932	0.361912	0.968506
N163	N	1.225027	-0.290562	1.104111
N164	N	1.558360	0.042771	1.437444
N165	N	1.891693	0.376105	1.770778
H166	H	1.280487	-0.303516	1.090472
H167	H	1.613820	0.029817	1.423806
H168	H	1.947153	0.363151	1.757139
H169	H	1.216964	-0.298647	1.162634
H170	H	1.550297	0.034687	1.495968
H171	H	1.883630	0.368020	1.829301
H172	H	1.180701	-0.886274	0.332017
H173	H	1.514034	-0.552941	0.665350
H174	H	1.847367	-0.219608	0.998684
N175	N	1.225000	-0.290629	0.933736
N176	N	1.558334	0.042704	1.267069
N177	N	1.891667	0.376037	1.600403
H178	H	1.194955	-0.252003	0.897884
H179	H	1.528288	0.081330	1.231217
H180	H	1.861622	0.414663	1.564550
H181	H	1.259725	-0.324579	0.901386
H182	H	1.593058	0.008754	1.234719
H183	H	1.926391	0.342087	1.568052
N184	N	0.651523	-0.512590	0.506816
N185	N	0.984857	-0.179256	0.840150
N186	N	1.318190	0.154077	1.173483
H187	H	0.615639	-0.551176	0.476688
H188	H	0.948972	-0.217843	0.810021
H189	H	1.282305	0.115491	1.143354
H190	H	0.619202	-0.478706	0.541630
H191	H	0.952535	-0.145372	0.874963
H192	H	1.285869	0.187961	1.208297
H193	H	0.811755	-0.498471	0.492886
H194	H	1.145089	-0.165137	0.826219
H195	H	1.478422	0.168196	1.159552
H196	H	0.419419	-0.304767	0.301868
H197	H	0.752752	0.028567	0.635201
H198	H	1.086085	0.361900	0.968534
N199	N	0.398677	-0.512612	0.506854
N200	N	0.732010	-0.179278	0.840187
N201	N	1.065344	0.154055	1.173520
H202	H	0.435471	-0.546435	0.540202
H203	H	0.768805	-0.213101	0.873535
H204	H	1.102138	0.120232	1.206869
H205	H	0.362798	-0.551147	0.476669
H206	H	0.696131	-0.217813	0.810002
H207	H	1.029464	0.115520	1.143336
N208	N	1.005638	-0.512195	1.114644
N209	N	1.338972	-0.178862	1.447978
N210	N	1.672305	0.154471	1.781311
H211	H	1.014935	-0.571776	1.103222
H212	H	1.348268	-0.238442	1.436555
H213	H	1.681602	0.094891	1.769888
H214	H	0.950199	-0.499165	1.099742
H215	H	1.283533	-0.165832	1.433075
H216	H	1.616866	0.167501	1.766408
H217	H	0.558908	-0.498489	0.492915
H218	H	0.892241	-0.165156	0.826248
H219	H	1.225574	0.168177	1.159581
N220	N	1.005600	-0.512259	0.944219
N221	N	1.338934	-0.178926	1.277553
N222	N	1.672267	0.154407	1.610886
H223	H	0.972176	-0.546024	0.984223
H224	H	1.305509	-0.212691	1.317557
H225	H	1.638843	0.120643	1.650890
H226	H	1.035686	-0.550853	0.912044
H227	H	1.369020	-0.217519	1.245377
H228	H	1.702353	0.115814	1.578711
H229	H	1.019535	-0.498193	0.850276
H230	H	1.352869	-0.164860	1.183609
H231	H	1.686202	0.168473	1.516943
N232	N	1.224962	-0.290717	0.680886
N233	N	1.558295	0.042616	1.014219
N234	N	1.891628	0.375950	1.347553
H235	H	1.258398	-0.256932	0.717696
H236	H	1.591731	0.076401	1.051029
H237	H	1.925065	0.409734	1.384362
H238	H	1.194866	-0.252142	0.645034
H239	H	1.528200	0.081192	0.978367
H240	H	1.861533	0.414525	1.311700
N241	N	1.005553	-0.512326	0.691372
N242	N	1.338887	-0.178992	1.024705
N243	N	1.672220	0.154341	1.358039
H244	H	0.972127	-0.546088	0.731376
H245	H	1.305460	-0.212754	1.064709
H246	H	1.638794	0.120579	1.398042
H247	H	1.035631	-0.550922	0.659192
H248	H	1.368965	-0.217589	0.992526
H249	H	1.702298	0.115745	1.325859
N250	N	1.036004	-0.927627	0.476516
N251	N	1.369337	-0.594294	0.809849
N252	N	1.702670	-0.260960	1.143183
H253	H	1.066208	-0.963700	0.514616
H254	H	1.399541	-0.630367	0.847950
H255	H	1.732875	-0.297034	1.181283
H256	H	0.997985	-0.963767	0.446216
H257	H	1.331319	-0.630433	0.779549
H258	H	1.664652	-0.297100	1.112882
N259	N	0.579661	-0.290649	0.287928
N260	N	0.912994	0.042685	0.621262
N261	N	1.246327	0.376018	0.954595
H262	H	0.542868	-0.256833	0.254572
H263	H	0.876201	0.076500	0.587905
H264	H	1.209534	0.409834	0.921238
H265	H	0.612028	-0.324535	0.253159
H266	H	0.945361	0.008799	0.586493
H267	H	1.278694	0.342132	0.919826
N268	N	0.832512	-0.290629	0.287905
N269	N	1.165845	0.042704	0.621238
N270	N	1.499179	0.376037	0.954572
H271	H	0.795719	-0.256812	0.254550
H272	H	1.129052	0.076521	0.587884
H273	H	1.462386	0.409855	0.921217
H274	H	0.864883	-0.324509	0.253134
H275	H	1.198216	0.008824	0.586467
H276	H	1.531549	0.342157	0.919800
H277	H	1.211035	-0.304753	0.841109
H278	H	1.544369	0.028580	1.174442
H279	H	1.877702	0.361913	1.507776
