data_functionalizedCrystal
_audit_creation_method	'MofGen! by Chris Wilmer'
_symmetry_space_group_name_H-M	'P1'
_symmetry_Int_Tables_number	1
_symmetry_cell_setting	triclinic
loop_
_symmetry_equiv_pos_as_xyz
  x,y,z
_cell_length_a	29.839131
_cell_length_b	19.121141
_cell_length_c	19.120904
_cell_angle_alpha	89.913687
_cell_angle_beta	92.409150
_cell_angle_gamma	92.405260
loop_
_atom_site_label
_atom_site_type_symbol
_atom_site_fract_x
_atom_site_fract_y
_atom_site_fract_z
Zn1	Zn	-0.219764	-1.054747	-0.442071
Zn2	Zn	0.280236	-0.554747	0.057929
Zn3	Zn	-0.291826	-1.059635	-0.324826
Zn4	Zn	0.208174	-0.559635	0.175174
Zn5	Zn	-0.213373	-0.942519	-0.319852
Zn6	Zn	0.286627	-0.442519	0.180148
Zn7	Zn	-0.291523	-0.937447	-0.437025
Zn8	Zn	0.208477	-0.437447	0.062975
O9	O	-0.254122	-0.998587	-0.380944
O10	O	0.245878	-0.498587	0.119056
O11	O	-0.232125	-1.153500	-0.430712
O12	O	0.267875	-0.653500	0.069288
O13	O	-0.278872	-1.048268	-0.226062
O14	O	0.221128	-0.548268	0.273938
O15	O	-0.151357	-0.957484	-0.336095
O16	O	0.348643	-0.457484	0.163905
O17	O	-0.285069	-1.157091	-0.344573
O18	O	0.214931	-0.657091	0.155427
O19	O	-0.156052	-1.039937	-0.425889
O20	O	0.343948	-0.539937	0.074111
O21	O	-0.221233	-0.962223	-0.222408
O22	O	0.278767	-0.462223	0.277592
O23	O	-0.220939	-0.843742	-0.331202
O24	O	0.279061	-0.343742	0.168798
O25	O	-0.284552	-0.948838	-0.535799
O26	O	0.215448	-0.448838	-0.035799
O27	O	-0.278355	-0.840015	-0.417288
O28	O	0.221645	-0.340015	0.082712
O29	O	-0.231831	-1.035019	-0.539506
O30	O	0.268169	-0.535019	-0.039506
O31	O	-0.354650	-1.043349	-0.339680
O32	O	0.145350	-0.543349	0.160320
O33	O	-0.354428	-0.953578	-0.422111
O34	O	0.145572	-0.453578	0.077889
C35	C	-0.248921	-0.816442	-0.373158
C36	C	0.251079	-0.316442	0.126842
C37	C	-0.246707	-0.738518	-0.369844
C38	C	0.253293	-0.238518	0.130156
C39	C	-0.275602	-0.699991	-0.413037
C40	C	0.224398	-0.199991	0.086963
C41	C	-0.273516	-0.626773	-0.409926
C42	C	0.226484	-0.126773	0.090074
C43	C	-0.242537	-0.592085	-0.363618
C44	C	0.257463	-0.092085	0.136382
C45	C	-0.213639	-0.630618	-0.320423
C46	C	0.286361	-0.130618	0.179577
C47	C	-0.215723	-0.703834	-0.323538
C48	C	0.284277	-0.203834	0.176462
C49	C	-0.234745	-0.371116	-0.351978
C50	C	0.265255	0.128884	0.148022
C51	C	-0.232663	-0.297895	-0.348865
C52	C	0.267337	0.202105	0.151135
C53	C	-0.292540	-0.294056	-0.438369
C54	C	0.207460	0.205944	0.061631
C55	C	-0.294624	-0.367273	-0.441477
C56	C	0.205376	0.132727	0.058523
C57	C	-0.265724	-0.405800	-0.398285
C58	C	0.234276	0.094200	0.101715
C59	C	-0.240405	-0.517245	-0.360436
C60	C	0.259595	-0.017245	0.139564
C61	C	-0.267854	-0.480638	-0.401471
C62	C	0.232146	0.019362	0.098529
C63	C	-0.370840	-0.998462	-0.380904
C64	C	0.129160	-0.498462	0.119096
C65	C	-0.420775	-0.998471	-0.380913
C66	C	0.079225	-0.498471	0.119087
C67	C	-0.730530	-1.045410	-0.338091
C68	C	-0.230530	-0.545410	0.161909
C69	C	-0.918206	-1.045495	-0.338121
C70	C	-0.418206	-0.545495	0.161879
O71	O	-0.942562	-1.085304	-0.301682
O72	O	-0.442562	-0.585304	0.198318
N73	N	-0.941569	-0.998730	-0.381003
N74	N	-0.441569	-0.498730	0.118997
C75	C	-0.918011	-0.951944	-0.423883
C76	C	-0.418011	-0.451944	0.076117
O77	O	-0.942190	-0.912174	-0.460362
O78	O	-0.442190	-0.412174	0.039638
C79	C	-0.730336	-0.951862	-0.423855
C80	C	-0.230336	-0.451862	0.076145
C81	C	-0.706975	-0.998625	-0.380966
C82	C	-0.206975	-0.498625	0.119034
C83	C	-0.707168	-1.092169	-0.295205
C84	C	-0.207168	-0.592169	0.204795
C85	C	-0.660252	-1.092145	-0.295195
C86	C	-0.160252	-0.592145	0.204805
C87	C	-0.636697	-1.045361	-0.338070
C88	C	-0.136697	-0.545361	0.161930
C89	C	-0.660058	-0.998601	-0.380956
C90	C	-0.160058	-0.498601	0.119044
C91	C	-0.706779	-0.905080	-0.466738
C92	C	-0.206779	-0.405080	0.033262
C93	C	-0.659857	-0.905065	-0.466729
C94	C	-0.159857	-0.405065	0.033271
C95	C	-0.636496	-0.951828	-0.423840
C96	C	-0.136496	-0.451828	0.076160
C97	C	-0.589587	-0.951792	-0.423821
C98	C	-0.089587	-0.451792	0.076179
N99	N	-0.566223	-0.998557	-0.380939
N100	N	-0.066223	-0.498557	0.119061
C101	C	-0.589778	-1.045341	-0.338064
C102	C	-0.089778	-0.545341	0.161936
C103	C	-1.016543	-0.951989	-0.423893
C104	C	-0.516543	-0.451989	0.076107
C105	C	-1.063462	-0.952008	-0.423899
C106	C	-0.563462	-0.452008	0.076101
C107	C	-1.063653	-1.045560	-0.338139
C108	C	-0.563653	-0.545560	0.161861
C109	C	-1.016734	-1.045537	-0.338130
C110	C	-0.516734	-0.545537	0.161870
C111	C	-0.993180	-0.998754	-0.381012
C112	C	-0.493180	-0.498754	0.118988
C113	C	-0.491250	-1.045286	-0.338046
C114	C	0.008750	-0.545286	0.161954
C115	C	-0.444330	-1.045256	-0.338037
C116	C	0.055670	-0.545256	0.161963
C117	C	-0.444143	-0.951706	-0.423800
C118	C	0.055857	-0.451706	0.076200
C119	C	-0.491059	-0.951734	-0.423806
C120	C	0.008941	-0.451734	0.076194
C121	C	-0.514612	-0.998530	-0.380927
C122	C	-0.014612	-0.498530	0.119073
O123	O	-0.565202	-0.912009	-0.460247
O124	O	-0.065202	-0.412009	0.039753
O125	O	-0.565592	-1.085115	-0.301602
O126	O	-0.065592	-0.585115	0.198398
C127	C	-0.777446	-1.045434	-0.338101
C128	C	-0.277446	-0.545434	0.161899
C129	C	-0.800807	-0.998674	-0.380986
C130	C	-0.300807	-0.498674	0.119014
C131	C	-0.777252	-0.951890	-0.423861
C132	C	-0.277252	-0.451890	0.076139
C133	C	-0.847726	-0.998693	-0.380992
C134	C	-0.347726	-0.498693	0.119008
C135	C	-0.871281	-1.045478	-0.338117
C136	C	-0.371281	-0.545478	0.161883
C137	C	-0.847917	-1.092242	-0.295236
C138	C	-0.347917	-0.592242	0.204764
C139	C	-0.801001	-1.092218	-0.295225
C140	C	-0.301001	-0.592218	0.204775
C141	C	-0.800616	-0.905125	-0.466742
C142	C	-0.300616	-0.405125	0.033258
C143	C	-0.847532	-0.905153	-0.466748
C144	C	-0.347532	-0.405153	0.033252
C145	C	-0.871087	-0.951937	-0.423873
C146	C	-0.371087	-0.451937	0.076127
C147	C	-0.136949	-0.998731	-0.381000
C148	C	0.363051	-0.498731	0.119000
C149	C	-0.087017	-0.998792	-0.381024
C150	C	0.412983	-0.498792	0.118976
C151	C	-0.258871	-0.990818	-0.563801
C152	C	0.241129	-0.490818	-0.063801
C153	C	-0.260894	-0.987507	-0.641724
C154	C	0.239106	-0.487507	-0.141724
C155	C	-0.259341	-0.181444	-0.388752
C156	C	0.240659	0.318556	0.111248
C157	C	-0.261559	-0.259368	-0.392058
C158	C	0.238441	0.240632	0.107942
C159	C	-0.234397	-1.030818	-0.680264
C160	C	0.265603	-0.530818	-0.180264
C161	C	-0.236297	-1.027699	-0.753480
C162	C	0.263703	-0.527699	-0.253480
C163	C	-0.264696	-0.981271	-0.788156
C164	C	0.235304	-0.481271	-0.288156
C165	C	-0.291194	-0.937954	-0.749611
C166	C	0.208806	-0.437954	-0.249611
C167	C	-0.289292	-0.941071	-0.676396
C168	C	0.210708	-0.441071	-0.176396
C169	C	-0.271810	-0.969613	-1.009122
C170	C	0.228190	-0.469613	-0.509122
C171	C	-0.273711	-0.966502	-1.082343
C172	C	0.226289	-0.466502	-0.582343
C173	C	-0.218813	-1.056246	-1.086207
C174	C	0.281187	-0.556246	-0.586207
C175	C	-0.216915	-1.059361	-1.012991
C176	C	0.283085	-0.559361	-0.512991
C177	C	-0.243412	-1.016042	-0.974452
C178	C	0.256588	-0.516042	-0.474452
C179	C	-0.266639	-0.978083	-0.862995
C180	C	0.233361	-0.478083	-0.362995
C181	C	-0.241466	-1.019227	-0.899614
C182	C	0.258534	-0.519227	-0.399614
C183	C	-0.249360	-1.006367	-0.198799
C184	C	0.250640	-0.506367	0.301201
C185	C	-0.247214	-1.009813	-0.120883
C186	C	0.252786	-0.509813	0.379117
H187	H	-0.293075	-0.508884	-0.439177
H188	H	0.206925	-0.008884	0.060823
H189	H	-0.316068	-0.262680	-0.473534
H190	H	0.183932	0.237320	0.026466
O191	O	-0.199246	-0.260476	-0.298922
O192	O	0.300754	0.239524	0.201078
H193	H	-0.179496	-0.299565	-0.269416
H194	H	0.320504	0.200435	0.230584
H195	H	-0.211273	-1.068627	-0.652037
H196	H	0.288727	-0.568627	-0.152037
H197	H	-0.211216	-0.402476	-0.316803
H198	H	0.288784	0.097524	0.183197
O199	O	-0.635058	-1.142587	-0.248940
O200	O	-0.135058	-0.642587	0.251060
H201	H	-0.615482	-1.176883	-0.281868
H202	H	-0.115482	-0.676883	0.218132
O203	O	-0.180235	-0.593210	-0.270458
O204	O	0.319765	-0.093210	0.229542
H205	H	-0.183647	-0.535826	-0.275535
H206	H	0.316353	-0.035826	0.224465
O207	O	-0.297270	-0.928011	-0.900400
O208	O	0.202730	-0.428011	-0.400400
H209	H	-0.315377	-0.898412	-0.861304
H210	H	0.184623	-0.398412	-0.361304
O211	O	-0.304763	-0.585222	-0.456377
O212	O	0.195237	-0.085222	0.043623
H213	H	-0.326689	-0.621645	-0.489045
H214	H	0.173311	-0.121645	0.010955
H215	H	-0.640682	-0.866969	-0.501651
H216	H	-0.140682	-0.366969	-0.001651
H217	H	-0.296838	-0.928692	-1.110573
H218	H	0.203162	-0.428692	-0.610573
O219	O	-0.207008	-0.479819	-0.310472
O220	O	0.292992	0.020181	0.189528
H221	H	-0.184052	-0.445143	-0.340486
H222	H	0.315948	0.054857	0.159514
O223	O	-0.207718	-1.074416	-0.795047
O224	O	0.292282	-0.574416	-0.295047
H225	H	-0.229711	-1.108633	-0.829926
H226	H	0.270289	-0.608633	-0.329926
O227	O	-0.300362	-0.922858	-0.967557
O228	O	0.199638	-0.422858	-0.467557
H229	H	-0.320423	-0.890043	-1.003972
H230	H	0.179577	-0.390043	-0.503972
O231	O	-0.328033	-0.404688	-0.491429
O232	O	0.171967	0.095312	0.008571
H233	H	-0.347772	-0.365596	-0.520948
H234	H	0.152228	0.134404	-0.020948
H235	H	-0.997369	-0.913890	-0.458814
H236	H	-0.497369	-0.413890	0.041186
O237	O	-0.419134	-1.095705	-0.291786
O238	O	0.080866	-0.595705	0.208214
H239	H	-0.395968	-1.065870	-0.254740
H240	H	0.104032	-0.565870	0.245260
O241	O	-0.516643	-1.095766	-0.291798
O242	O	-0.016643	-0.595766	0.208202
H243	H	-0.539813	-1.130096	-0.324732
H244	H	-0.039813	-0.630096	0.175268
H245	H	-0.314315	-0.900149	-0.777849
H246	H	0.185685	-0.400149	-0.277849
O247	O	-0.317869	-0.894356	-0.634822
O248	O	0.182131	-0.394356	-0.134822
H249	H	-0.295872	-0.860132	-0.599956
H250	H	0.204128	-0.360132	-0.099956
O251	O	-0.732570	-1.142629	-0.248953
O252	O	-0.232570	-0.642629	0.251047
H253	H	-0.708436	-1.175131	-0.219132
H254	H	-0.208436	-0.675131	0.280868
O255	O	-0.309013	-0.737394	-0.462994
O256	O	0.190987	-0.237394	0.037006
H257	H	-0.290814	-0.769260	-0.500135
H258	H	0.209186	-0.269260	-0.000135
O259	O	-0.186287	-1.109442	-0.975594
O260	O	0.313713	-0.609442	-0.475594
H261	H	-0.151050	-1.096866	-0.989142
H262	H	0.348950	-0.596866	-0.489142
O263	O	-0.210840	-1.069308	-0.862216
O264	O	0.289160	-0.569308	-0.362216
H265	H	-0.186224	-1.039382	-0.827521
H266	H	0.313776	-0.539382	-0.327521
H267	H	-0.997716	-1.083616	-0.303206
H268	H	-0.497716	-0.583616	0.196794
H269	H	-0.192191	-0.735202	-0.288370
H270	H	0.307809	-0.235202	0.211630
H271	H	-1.082840	-1.083654	-0.303228
H272	H	-0.582840	-0.583654	0.196772
O273	O	-1.088657	-0.901567	-0.470153
O274	O	-0.588657	-0.401567	0.029847
H275	H	-1.064391	-0.869040	-0.499969
H276	H	-0.564391	-0.369040	0.000031
H277	H	-0.197241	-1.091512	-1.117593
H278	H	0.302759	-0.591512	-0.617593
O279	O	-0.731970	-0.854646	-0.513003
O280	O	-0.231970	-0.354646	-0.013003
H281	H	-0.707701	-0.822123	-0.542818
H282	H	-0.207701	-0.322123	-0.042818
O283	O	-0.516261	-0.901297	-0.470062
O284	O	-0.016261	-0.401297	0.029938
H285	H	-0.491997	-0.868764	-0.499876
H286	H	0.008003	-0.368764	0.000124
H287	H	-0.424957	-0.913613	-0.458707
H288	H	0.075043	-0.413613	0.041293
O289	O	-0.775806	-1.142662	-0.248974
O290	O	-0.275806	-0.642662	0.251026
H291	H	-0.800075	-1.175199	-0.219172
H292	H	-0.300075	-0.675199	0.280828
H293	H	-0.867104	-1.130334	-0.260323
H294	H	-0.367104	-0.630334	0.239677
H295	H	-0.781441	-0.867028	-0.501658
H296	H	-0.281441	-0.367028	-0.001658
O297	O	-0.872728	-0.854713	-0.513011
O298	O	-0.372728	-0.354713	-0.013011
H299	H	-0.848462	-0.822185	-0.542826
H300	H	-0.348462	-0.322185	-0.042826
