data_functionalizedCrystal
_audit_creation_method	'MofGen! by Chris Wilmer'
_symmetry_space_group_name_H-M	'P1'
_symmetry_Int_Tables_number	1
_symmetry_cell_setting	triclinic
loop_
_symmetry_equiv_pos_as_xyz
  x,y,z
_cell_length_a	16.956995
_cell_length_b	10.723024
_cell_length_c	16.053802
_cell_angle_alpha	92.591250
_cell_angle_beta	87.607939
_cell_angle_gamma	80.261170
loop_
_atom_site_label
_atom_site_type_symbol
_atom_site_fract_x
_atom_site_fract_y
_atom_site_fract_z
O1	O	1.061656	0.046085	-0.069486
O2	O	0.829738	0.089868	-0.069475
O3	O	0.951046	-0.114223	-0.069478
O4	O	0.940347	0.250176	-0.069483
O5	O	0.944369	-0.103033	0.069381
O6	O	0.823060	0.101058	0.069384
O7	O	1.054978	0.057275	0.069373
Zn8	Zn	0.937959	0.080943	0.091426
Zn9	Zn	0.946757	0.066200	-0.091527
O10	O	0.933670	0.261366	0.069376
C11	C	0.796703	0.097705	-0.000044
C12	C	0.708219	0.104369	-0.000039
C13	C	0.209193	0.154225	-0.000071
C14	C	0.292334	0.147953	-0.000070
C15	C	0.342778	0.030229	-0.000062
C16	C	0.310077	-0.081232	-0.000063
C17	C	0.226938	-0.074960	-0.000070
C18	C	0.592379	-0.000819	-0.000047
C19	C	0.675524	-0.007083	-0.000038
C20	C	0.657774	0.222104	-0.000047
C21	C	0.574634	0.228366	-0.000048
C22	C	0.541941	0.116905	-0.000054
N23	N	0.427761	0.023815	-0.000059
N24	N	0.456960	0.123319	-0.000063
C25	C	0.946929	-0.155037	-0.000049
C26	C	0.944599	-0.293320	-0.000052
C27	C	1.012478	-0.376214	-0.000056
C28	C	1.010072	-0.519137	-0.000059
C29	C	1.088013	0.049438	-0.000060
C30	C	1.176498	0.042773	-0.000070
C31	C	0.937787	0.302180	-0.000055
C32	C	0.940117	0.440462	-0.000057
N33	N	0.931961	0.091004	0.216286
N34	N	0.952762	0.056128	-0.216388
C35	C	0.983597	0.004190	0.259979
C36	C	0.979408	0.011239	0.347386
C37	C	0.923587	0.105108	0.391098
C38	C	0.871945	0.191926	0.347399
C39	C	0.876131	0.184871	0.259994
C40	C	0.905305	0.135891	0.652508
C41	C	0.901125	0.142942	0.739920
C42	C	1.008588	-0.037747	0.739900
C43	C	1.012771	-0.044790	0.652493
C44	C	0.961127	0.042024	0.608802
N45	N	0.919306	0.112318	0.480442
N46	N	0.965405	0.034808	0.519459
H47	H	0.533567	0.324230	-0.000057
F48	F	0.557597	-0.119448	-0.000069
F49	F	1.072183	-0.144694	0.605972
F50	F	0.812531	0.291825	0.393922
H51	H	0.318950	0.238709	-0.000079
F52	F	1.063546	-0.130137	0.786404
F53	F	0.864158	-0.466478	-0.000046
F54	F	0.692575	0.340719	-0.000045
F55	F	0.866311	-0.338854	-0.000056
H56	H	1.021454	-0.059452	0.382960
H57	H	0.351156	-0.177087	-0.000062
H58	H	0.834082	0.255563	0.224420
H59	H	0.855667	0.219387	0.775506
H60	H	0.168126	0.250090	-0.000071
F61	F	1.090766	-0.330681	-0.000065
H62	H	0.716594	-0.102954	-0.000035
H63	H	0.200320	-0.165716	-0.000071
H64	H	1.068180	-0.590342	-0.000059
H65	H	0.863256	0.206581	0.616942
H66	H	1.029056	-0.072243	0.224394
