data_functionalizedCrystal
_audit_creation_method	'MofGen! by Chris Wilmer'
_symmetry_space_group_name_H-M	'P1'
_symmetry_Int_Tables_number	1
_symmetry_cell_setting	triclinic
loop_
_symmetry_equiv_pos_as_xyz
  x,y,z
_cell_length_a	14.853567
_cell_length_b	14.853567
_cell_length_c	13.330367
_cell_angle_alpha	90.000844
_cell_angle_beta	89.995418
_cell_angle_gamma	96.365070
loop_
_atom_site_label
_atom_site_type_symbol
_atom_site_fract_x
_atom_site_fract_y
_atom_site_fract_z
O1	O	1.196369	-0.117704	-0.083346
O2	O	0.933909	-0.131725	-0.083362
O3	O	1.072150	0.006515	-0.083356
O4	O	1.058128	-0.255944	-0.083351
O5	O	1.072130	0.006519	0.083491
O6	O	0.933889	-0.131722	0.083485
O7	O	1.196349	-0.117700	0.083501
Cu8	Cu	1.065117	-0.124711	0.098728
Cu9	Cu	1.065141	-0.124715	-0.098588
O10	O	1.058108	-0.255941	0.083496
C11	C	0.900311	-0.131088	0.000060
C12	C	0.800227	-0.129184	0.000053
C13	C	0.387693	-0.039019	0.000074
C14	C	0.366412	-0.203251	0.000076
C15	C	0.460446	-0.205042	0.000073
C16	C	0.518108	-0.123819	0.000069
C17	C	0.481736	-0.040806	0.000067
C18	C	0.496825	-0.288053	0.000064
C19	C	0.590864	-0.289846	0.000059
C20	C	0.648528	-0.208623	0.000062
C21	C	0.612150	-0.125607	0.000062
C22	C	0.669812	-0.044384	0.000058
C23	C	0.633437	0.038633	0.000065
C24	C	0.539399	0.040417	0.000070
C25	C	0.742565	-0.210407	0.000057
C26	C	0.763855	-0.046172	0.000052
C27	C	1.071504	0.040106	0.000064
C28	C	1.069601	0.140189	0.000055
C29	C	1.229947	-0.118337	0.000078
C30	C	1.330031	-0.120241	0.000078
C31	C	1.058754	-0.289531	0.000073
C32	C	1.060657	-0.389615	0.000075
N33	N	1.065107	-0.124708	0.237509
C34	C	0.979435	0.552723	0.000069
C35	C	1.143668	0.574004	0.000079
C36	C	1.145458	0.479971	0.000073
C37	C	1.064235	0.422309	0.000067
C38	C	0.981223	0.458680	0.000066
C39	C	1.228469	0.443591	0.000084
C40	C	1.230262	0.349552	0.000079
C41	C	1.149039	0.291889	0.000066
C42	C	1.066023	0.328266	0.000064
C43	C	0.984800	0.270604	0.000058
C44	C	0.901783	0.306979	0.000049
C45	C	0.899999	0.401017	0.000053
C46	C	1.150823	0.197851	0.000062
C47	C	0.986588	0.176561	0.000055
N48	N	1.065158	-0.124711	-0.237370
C49	C	1.003925	-0.185903	0.710130
C50	C	1.126381	-0.063519	0.710103
C51	C	1.126371	-0.063516	0.605084
C52	C	1.065138	-0.124709	0.552584
C53	C	1.003915	-0.185904	0.605102
C54	C	1.187598	-0.002328	0.552559
C55	C	1.187591	-0.002323	0.447534
C56	C	1.126353	-0.063512	0.395031
C57	C	1.065127	-0.124710	0.447556
C58	C	1.003895	-0.185902	0.395055
C59	C	0.942664	-0.247096	0.447578
C60	C	0.942677	-0.247093	0.552599
C61	C	1.126340	-0.063515	0.290010
C62	C	1.003884	-0.185903	0.290027
H63	H	0.680397	0.104764	0.000055
O64	O	0.883308	-0.306576	0.396464
C65	C	0.931656	-0.362300	0.335729
H66	H	1.002156	-0.326523	0.319995
H67	H	0.894048	-0.376490	0.261878
H68	H	0.937856	-0.428944	0.376201
H69	H	1.294596	0.490546	0.000099
O70	O	0.819828	0.032755	-0.000131
C71	C	0.803303	0.083157	-0.086526
H72	H	0.771224	0.035602	-0.146920
H73	H	0.869972	0.119230	-0.115540
H74	H	0.755354	0.135396	-0.066982
O75	O	1.247025	0.057240	0.603453
C76	C	1.232237	0.146509	0.577811
H77	H	1.197500	0.146458	0.501554
H78	H	1.299940	0.190796	0.574227
H79	H	1.187314	0.174461	0.636915
H80	H	1.176239	-0.013702	0.752852
H81	H	1.237447	0.047504	0.404776
H82	H	1.176197	-0.013696	0.247251
O83	O	0.944525	-0.245387	0.238922
C84	C	0.992866	-0.301116	0.178187
H85	H	1.063364	-0.265340	0.162440
H86	H	0.955250	-0.315314	0.104342
H87	H	0.999072	-0.367756	0.218665
O88	O	0.310497	-0.282207	0.000210
C89	C	0.326979	-0.332588	0.086634
H90	H	0.398280	-0.310537	0.115444
H91	H	0.320463	-0.407771	0.067201
H92	H	0.275524	-0.320198	0.147142
O93	O	0.898739	0.587945	0.000193
C94	C	0.849218	0.558510	0.086613
H95	H	0.873866	0.493262	0.115429
H96	H	0.774161	0.545550	0.067171
H97	H	0.859581	0.612913	0.147120
O98	O	0.504019	0.121030	-0.000108
C99	C	0.450248	0.126959	-0.086508
H100	H	0.472556	0.079821	-0.146902
H101	H	0.458588	0.199605	-0.115517
H102	H	0.376119	0.106246	-0.066971
O103	O	0.352214	0.041542	0.000035
C104	C	0.256850	0.025711	0.000073
H105	H	0.234855	-0.044616	-0.031513
H106	H	0.227908	0.078835	-0.048362
H107	H	0.230671	0.030112	0.080121
H108	H	1.297860	0.319944	0.000085
H109	H	0.772178	-0.277998	0.000053
H110	H	1.209795	0.620958	0.000092
O111	O	0.907745	0.120460	0.000181
C112	C	0.903839	0.065444	0.086606
H113	H	0.975398	0.060596	0.115424
H114	H	0.870344	-0.005187	0.067168
H115	H	0.862617	0.096435	0.147108
O116	O	0.440720	-0.366885	-0.000066
C117	C	0.385700	-0.370769	-0.086481
H118	H	0.380860	-0.299204	-0.115289
H119	H	0.315066	-0.404257	-0.067036
H120	H	0.416680	-0.411987	-0.146995
H121	H	0.832411	0.430643	0.000046
O122	O	0.944483	-0.245467	0.761030
C123	C	0.959254	-0.334742	0.735384
H124	H	0.994004	-0.334697	0.659129
H125	H	0.891542	-0.379013	0.731795
H126	H	1.004157	-0.362708	0.794489
O127	O	0.626045	-0.370563	0.000105
C128	C	0.554985	-0.441866	0.000083
H129	H	0.491070	-0.416516	0.031668
H130	H	0.574707	-0.499812	0.048527
H131	H	0.541718	-0.466929	-0.079961
O132	O	0.822826	0.251054	-0.000092
C133	C	0.772455	0.267532	-0.086522
H134	H	0.794500	0.338837	-0.115333
H135	H	0.697268	0.261003	-0.067097
H136	H	0.784862	0.216082	-0.147027
O137	O	1.231476	0.162557	-0.000110
C138	C	1.281019	0.192034	-0.086501
H139	H	1.232490	0.211665	-0.146900
H140	H	1.319444	0.135019	-0.115509
H141	H	1.331182	0.253251	-0.066954
O142	O	0.883171	-0.306412	0.603733
C143	C	0.827494	-0.258026	0.664482
H144	H	0.863315	-0.187543	0.680202
H145	H	0.813295	-0.295627	0.738340
H146	H	0.760851	-0.251783	0.624030
