data_functionalizedCrystal
_audit_creation_method	'MofGen! by Chris Wilmer'
_symmetry_space_group_name_H-M	'P1'
_symmetry_Int_Tables_number	1
_symmetry_cell_setting	triclinic
loop_
_symmetry_equiv_pos_as_xyz
  x,y,z
_cell_length_a	13.635800
_cell_length_b	23.752959
_cell_length_c	17.982968
_cell_angle_alpha	83.436948
_cell_angle_beta	102.451960
_cell_angle_gamma	79.933576
loop_
_atom_site_label
_atom_site_type_symbol
_atom_site_fract_x
_atom_site_fract_y
_atom_site_fract_z
V1	V	1.999088	-0.079697	0.237982
O2	O	2.001759	0.003278	0.233009
O3	O	1.966632	-0.157496	0.236780
O4	O	1.972446	-0.078713	0.341580
O5	O	1.995905	-0.076050	0.127484
V6	V	2.242288	-0.069744	0.224714
O7	O	2.126561	-0.101531	0.267087
O8	O	2.339913	-0.047910	0.195609
O9	O	2.163140	0.008055	0.225915
O10	O	2.298315	-0.152719	0.229687
O11	O	2.304169	-0.073391	0.335212
O12	O	2.157326	-0.070728	0.121116
V13	V	2.499088	-0.079697	0.237982
O14	O	2.501759	0.003278	0.233009
O15	O	2.466632	-0.157496	0.236780
O16	O	2.472446	-0.078713	0.341580
O17	O	2.495905	-0.076050	0.127484
V18	V	2.742288	-0.069744	0.224714
O19	O	2.626561	-0.101531	0.267087
O20	O	2.839913	-0.047910	0.195609
O21	O	2.663140	0.008055	0.225915
O22	O	2.798315	-0.152719	0.229687
O23	O	2.804169	-0.073391	0.335212
O24	O	2.657326	-0.070728	0.121116
C25	C	1.887203	-0.176454	0.233136
C26	C	1.901294	-0.240056	0.232844
C27	C	1.871618	-0.512054	0.227811
C28	C	1.858363	-0.452291	0.228079
O29	O	1.774420	-0.418900	0.224998
N30	N	1.942386	-0.425323	0.232027
C31	C	2.039674	-0.458122	0.235714
O32	O	2.109926	-0.429696	0.239097
C33	C	2.052930	-0.517884	0.235451
C34	C	1.968897	-0.544848	0.231496
C35	C	1.787593	-0.539018	0.223857
C36	C	1.800848	-0.598776	0.223587
C37	C	1.898127	-0.631571	0.227272
C38	C	1.982152	-0.604607	0.231226
C39	C	2.150218	-0.550683	0.239144
C40	C	2.163467	-0.610449	0.238881
C41	C	2.079434	-0.637413	0.234926
C42	C	2.092686	-0.697159	0.234641
N43	N	2.008662	-0.724127	0.230694
C44	C	1.911383	-0.691333	0.227009
C45	C	2.011830	-0.332617	0.236267
C46	C	1.998574	-0.272856	0.236524
C47	C	1.817264	-0.267029	0.228891
C48	C	1.830519	-0.326791	0.228628
C49	C	1.927806	-0.359585	0.232320
C50	C	1.939225	-0.816830	0.226442
C51	C	1.952488	-0.876594	0.226170
C52	C	2.133798	-0.882416	0.233807
C53	C	2.120536	-0.822657	0.234076
C54	C	2.023242	-0.789866	0.230395
O55	O	2.176599	-0.730588	0.237724
O56	O	1.841148	-0.719768	0.223637
C57	C	1.894619	-0.075958	0.366817
C58	C	1.913423	-0.075668	0.451511
C59	C	2.074240	0.027010	0.229558
C60	C	2.049768	0.090612	0.229854
C61	C	2.066825	-0.073485	0.095875
C62	C	2.037640	-0.073771	0.011179
C63	C	2.387203	-0.176454	0.233136
C64	C	2.401294	-0.240056	0.232844
C65	C	2.394619	-0.075958	0.366817
C66	C	2.413423	-0.075668	0.451511
C67	C	2.012913	-0.078399	0.495198
C68	C	2.030576	-0.078127	0.574777
C69	C	1.948748	-0.075127	0.610669
C70	C	1.849249	-0.072395	0.566976
C71	C	1.831587	-0.072663	0.487398
C72	C	1.920478	-0.071311	0.887907
C73	C	1.938149	-0.071044	0.967492
C74	C	2.119467	-0.076775	0.975287
C75	C	2.101805	-0.077043	0.895708
C76	C	2.002307	-0.074307	0.852022
C77	C	1.983156	-0.074602	0.765733
C78	C	1.967899	-0.074837	0.696957
C79	C	2.574240	0.027010	0.229558
C80	C	2.549768	0.090612	0.229854
C81	C	2.566825	-0.073485	0.095875
C82	C	2.537640	-0.073771	0.011179
C83	C	2.498574	-0.272851	0.236529
C84	C	2.511830	-0.332614	0.236267
C85	C	2.427805	-0.359581	0.232313
C86	C	2.330518	-0.326783	0.228630
C87	C	2.317264	-0.267021	0.228898
C88	C	2.512919	-0.078394	0.495184
C89	C	2.530600	-0.078114	0.574762
C90	C	2.448784	-0.075113	0.610667
C91	C	2.349280	-0.072386	0.566989
C92	C	2.331599	-0.072661	0.487411
C93	C	2.624982	0.123406	0.226171
C94	C	2.601997	0.183169	0.226437
C95	C	2.503799	0.210136	0.230393
C96	C	2.428579	0.177338	0.234074
C97	C	2.451563	0.117577	0.233802
C98	C	2.437225	-0.076766	-0.024706
C99	C	2.409786	-0.077029	-0.104288
C100	C	2.482765	-0.074301	-0.147981
C101	C	2.583188	-0.071304	-0.112090
C102	C	2.610623	-0.071038	-0.032511
H103	H	1.884055	-0.898544	0.222949
O104	O	2.101173	-0.081636	0.456488
H105	H	2.086786	-0.042701	0.412069
O106	O	1.849964	-0.068079	1.006266
H107	H	1.777835	-0.066316	0.962540
O108	O	2.467864	-0.074820	0.696500
H109	H	2.444059	-0.112707	0.724154
H110	H	2.328012	-0.079468	-0.133498
O111	O	2.453171	-0.074595	-0.233811
H112	H	2.371086	-0.077142	-0.251417
O113	O	2.661900	-0.068367	-0.159218
H114	H	2.625944	-0.069064	-0.220580
O115	O	2.224278	-0.069720	0.440315
H116	H	2.225712	-0.070410	0.378944
H117	H	2.579550	-0.080839	0.465961
O118	O	1.813168	-0.068366	0.840798
H119	H	1.811456	-0.107545	0.812697
H120	H	2.218650	-0.528740	0.242368
O121	O	2.370440	0.082205	0.237792
H122	H	2.298305	0.111000	0.240598
H123	H	2.262110	-0.348749	0.225411
O124	O	2.718933	-0.067808	0.006189
H125	H	2.773176	-0.105686	-0.002611
O126	O	2.479016	0.274593	0.230690
H127	H	2.455901	0.282863	0.284614
H128	H	1.860003	-0.790138	0.223448
O129	O	2.116765	-0.367982	0.240229
H130	H	2.140266	-0.401570	0.292496
O131	O	1.710208	-0.627851	0.219334
H132	H	1.698783	-0.648713	0.166825
O133	O	2.268397	-0.645819	0.242851
H134	H	2.322431	-0.641968	0.296933
O135	O	1.682663	-0.503650	0.219879
H136	H	1.626474	-0.532449	0.217081
O137	O	1.739890	-0.355874	0.224374
H138	H	1.670024	-0.323025	0.221862
O139	O	2.322673	0.206424	0.238356
H140	H	2.319345	0.253487	0.237939
O141	O	2.683141	0.218533	0.222472
H142	H	2.650669	0.264622	0.223315
H143	H	2.238046	-0.240324	0.225893
H144	H	2.438612	-0.408244	0.232095
H145	H	2.591052	-0.359311	0.239264
H146	H	2.611627	-0.080337	0.610315
O147	O	2.261042	-0.069158	0.605720
H148	H	2.290066	-0.069433	0.668394
O149	O	2.358494	-0.079742	0.022397
H150	H	2.293696	-0.041978	0.000656
O151	O	1.712339	-0.231652	0.224932
H152	H	1.688860	-0.198056	0.172674
O153	O	2.089219	-0.243783	0.240798
H154	H	2.122143	-0.250433	0.190382
O155	O	2.211165	-0.793568	0.238339
H156	H	2.281037	-0.826415	0.240859
H157	H	2.704946	0.101458	0.222951
H158	H	2.111588	-0.080347	0.610343
O159	O	2.238719	-0.917791	0.237775
H160	H	2.233811	-0.963876	0.236929
H161	H	2.200484	-0.079000	1.010865
H162	H	1.782624	-0.069949	0.596205
H163	H	2.168440	-0.079489	0.866490
O164	O	1.724281	-0.069722	0.440273
H165	H	1.670348	-0.067597	0.478600
H166	H	2.567002	-0.250902	0.239744
