data_functionalizedCrystal
_audit_creation_method	'MofGen! by Chris Wilmer'
_symmetry_space_group_name_H-M	'P1'
_symmetry_Int_Tables_number	1
_symmetry_cell_setting	triclinic
loop_
_symmetry_equiv_pos_as_xyz
  x,y,z
_cell_length_a	11.792241
_cell_length_b	14.044220
_cell_length_c	10.268362
_cell_angle_alpha	89.993803
_cell_angle_beta	89.999626
_cell_angle_gamma	88.691147
loop_
_atom_site_label
_atom_site_type_symbol
_atom_site_fract_x
_atom_site_fract_y
_atom_site_fract_z
O1	O	1.519112	0.129987	-0.108177
O2	O	2.019112	0.629987	0.391823
O3	O	1.190028	0.143384	-0.108207
O4	O	1.690028	0.643384	0.391793
O5	O	1.349630	-0.001325	-0.108180
O6	O	1.849630	0.498675	0.391820
O7	O	1.359509	0.274695	-0.108204
O8	O	1.859509	0.774695	0.391796
O9	O	1.349615	-0.001331	0.108421
O10	O	1.849615	0.498669	0.608421
O11	O	1.190012	0.143378	0.108393
O12	O	1.690012	0.643378	0.608393
O13	O	1.519096	0.129981	0.108424
O14	O	2.019096	0.629981	0.608424
Cu15	Cu	1.354553	0.136679	0.128186
Cu16	Cu	1.854553	0.636679	0.628186
Cu17	Cu	1.354571	0.136686	-0.127969
Cu18	Cu	1.854571	0.636686	0.372031
O19	O	1.359494	0.274689	0.108396
O20	O	1.859494	0.774689	0.608396
C21	C	1.147650	0.142539	0.000089
C22	C	1.647650	0.642539	0.500089
C23	C	1.021400	0.140020	0.000078
C24	C	1.521400	0.640020	0.500078
C25	C	0.790253	0.135389	0.000116
C26	C	1.290253	0.635389	0.500116
C27	C	0.918880	0.137962	0.000095
C28	C	1.418880	0.637962	0.500095
C29	C	1.345298	-0.036664	0.000121
C30	C	1.845298	0.463336	0.500121
C31	C	1.332399	-0.141956	0.000121
C32	C	1.832399	0.358044	0.500121
C33	C	1.308817	-0.334739	0.000100
C34	C	1.808817	0.165261	0.500100
C35	C	1.400302	-0.391902	0.000105
C36	C	1.900302	0.108098	0.500105
C37	C	1.387181	-0.499173	0.000093
C38	C	1.887181	0.000827	0.500093
C39	C	1.321937	-0.227458	0.000112
C40	C	1.821937	0.272542	0.500112
C41	C	1.561474	0.130826	0.000125
C42	C	2.061474	0.630826	0.500125
C43	C	1.687724	0.133344	0.000127
C44	C	2.187724	0.633344	0.500127
C45	C	1.363826	0.310029	0.000093
C46	C	1.863826	0.810029	0.500093
C47	C	1.376725	0.415321	0.000084
C48	C	1.876725	0.915321	0.500084
N49	N	1.354548	0.136673	0.308352
N50	N	1.854548	0.636673	0.808352
N51	N	1.354584	0.136684	-0.308135
N52	N	1.854584	0.636684	0.191865
C53	C	1.354565	0.136684	0.574022
C54	C	1.854565	0.636684	1.074022
C55	C	1.354552	0.136681	0.426185
C56	C	1.854552	0.636681	0.926185
H57	H	1.220647	-0.366361	0.000089
H58	H	1.720647	0.133639	0.500089
O59	O	1.505416	-0.354026	0.000185
O60	O	2.005416	0.145974	0.500185
C61	C	1.495292	-0.253799	0.000163
C62	C	1.995292	0.246201	0.500163
H63	H	1.408979	-0.231148	0.041153
H64	H	1.908979	0.268852	0.541153
H65	H	1.565164	-0.222996	0.063066
H66	H	2.065164	0.277004	0.563066
H67	H	1.503546	-0.226209	-0.103747
H68	H	2.003546	0.273791	0.396253
