data_functionalizedCrystal
_audit_creation_method	'MofGen! by Chris Wilmer'
_symmetry_space_group_name_H-M	'P1'
_symmetry_Int_Tables_number	1
_symmetry_cell_setting	triclinic
loop_
_symmetry_equiv_pos_as_xyz
  x,y,z
_cell_length_a	18.266242
_cell_length_b	9.065218
_cell_length_c	9.065218
_cell_angle_alpha	85.015885
_cell_angle_beta	90.002627
_cell_angle_gamma	90.005697
loop_
_atom_site_label
_atom_site_type_symbol
_atom_site_fract_x
_atom_site_fract_y
_atom_site_fract_z
O1	O	-0.060880	-1.960404	-0.216356
O2	O	-0.060880	-1.531119	-0.234103
O3	O	-0.060878	-1.754635	-0.010587
O4	O	-0.060881	-1.736888	-0.439872
O5	O	0.060884	-1.754610	-0.010581
O6	O	0.060882	-1.531095	-0.234097
O7	O	0.060882	-1.960379	-0.216350
Zn8	Zn	0.080214	-1.745733	-0.225223
Zn9	Zn	-0.080212	-1.745766	-0.225230
O10	O	0.060881	-1.736864	-0.439866
C11	C	0.000001	-1.476120	-0.232394
C12	C	0.000000	-1.312277	-0.227294
N13	N	0.189701	-1.745722	-0.225217
N14	N	-0.189699	-1.745788	-0.225225
C15	C	0.771979	-1.844764	-0.126279
C16	C	0.695334	-1.844766	-0.126283
C17	C	0.657014	-1.745767	-0.225217
C18	C	0.695345	-1.646784	-0.324181
C19	C	0.771988	-1.646795	-0.324185
N20	N	0.536687	-1.615442	-0.242195
N21	N	0.463879	-1.615437	-0.242183
C22	C	0.426091	-1.745730	-0.225213
N23	N	0.463863	-1.876034	-0.208228
N24	N	0.536677	-1.876038	-0.208233
C25	C	0.573907	-1.745745	-0.225224
C26	C	0.304663	-1.844716	-0.126266
C27	C	0.228017	-1.844720	-0.126280
C28	C	0.228028	-1.646725	-0.324171
C29	C	0.304673	-1.646734	-0.324164
C30	C	0.342986	-1.745728	-0.225204
C31	C	0.000001	-1.752917	0.044403
C32	C	-0.000002	-1.747817	0.208245
C33	C	-0.000000	-2.015378	-0.218059
C34	C	-0.000004	-2.179221	-0.223158
C35	C	-0.000001	-1.738582	-0.494855
C36	C	-0.000002	-1.743681	-0.658698
H37	H	0.664127	-1.925367	-0.045707
C38	C	0.653196	-1.537880	-0.433009
C39	C	0.568891	-1.537855	-0.433004
C40	C	0.526744	-1.428952	-0.541842
C41	C	0.568902	-1.320075	-0.650684
C42	C	0.653212	-1.320097	-0.650693
C43	C	0.695359	-1.428999	-0.541855
H44	H	0.537679	-1.618456	-0.352429
H45	H	0.464333	-1.428937	-0.541835
H46	H	0.537702	-1.239459	-0.731252
H47	H	0.684424	-1.239496	-0.731268
H48	H	0.757770	-1.429015	-0.541862
H49	H	0.803171	-1.925374	-0.045704
C50	C	0.346833	-1.537845	-0.432992
C51	C	0.399515	-1.597010	-0.546645
C52	C	0.441676	-1.488119	-0.655481
C53	C	0.431155	-1.320064	-0.650664
C54	C	0.378471	-1.260890	-0.537007
C55	C	0.336310	-1.369781	-0.428171
H56	H	0.407306	-1.721422	-0.550215
H57	H	0.480677	-1.531925	-0.739617
H58	H	0.462365	-1.239457	-0.731231
H59	H	0.370681	-1.136478	-0.533437
H60	H	0.297310	-1.325976	-0.344034
C61	C	0.185858	-1.953600	-0.017435
C62	C	0.228002	-2.062483	0.091415
C63	C	0.185841	-2.171364	0.200261
C64	C	0.101537	-2.171361	0.200258
C65	C	0.059388	-2.062475	0.091404
C66	C	0.101548	-1.953594	-0.017442
H67	H	0.290414	-2.062488	0.091421
H68	H	0.217043	-2.251969	0.280842
H69	H	0.070327	-2.251961	0.280833
H70	H	-0.003024	-2.062469	0.091398
H71	H	0.070347	-1.872989	-0.098023
H72	H	0.196828	-1.566124	-0.404731
C73	C	0.814147	-1.537908	-0.433023
C74	C	0.803623	-1.369852	-0.428211
C75	C	0.845784	-1.260962	-0.537047
C76	C	0.898469	-1.320127	-0.650694
C77	C	0.908995	-1.488191	-0.655510
C78	C	0.866834	-1.597081	-0.546675
H79	H	0.764620	-1.326047	-0.344078
H80	H	0.837991	-1.136549	-0.533481
H81	H	0.929679	-1.239519	-0.731261
H82	H	0.947998	-1.531996	-0.739643
H83	H	0.874627	-1.721493	-0.550240
H84	H	0.335858	-1.925327	-0.045691
