data_functionalizedCrystal
_audit_creation_method	'MofGen! by Chris Wilmer'
_symmetry_space_group_name_H-M	'P1'
_symmetry_Int_Tables_number	1
_symmetry_cell_setting	triclinic
loop_
_symmetry_equiv_pos_as_xyz
  x,y,z
_cell_length_a	17.640280
_cell_length_b	19.805407
_cell_length_c	19.805399
_cell_angle_alpha	90.021064
_cell_angle_beta	78.776890
_cell_angle_gamma	101.201178
loop_
_atom_site_label
_atom_site_type_symbol
_atom_site_fract_x
_atom_site_fract_y
_atom_site_fract_z
Zn1	Zn	-0.314702	-1.089284	-0.328342
Zn2	Zn	0.185298	-0.589284	0.171658
Zn3	Zn	-0.446876	-1.112110	-0.192304
Zn4	Zn	0.053124	-0.612110	0.307696
Zn5	Zn	-0.314722	-0.976102	-0.215160
Zn6	Zn	0.185278	-0.476102	0.284840
Zn7	Zn	-0.446832	-0.998965	-0.305455
Zn8	Zn	0.053168	-0.498965	0.194545
O9	O	-0.380783	-1.044115	-0.260315
O10	O	0.119217	-0.544115	0.239685
O11	O	-0.332246	-1.187031	-0.310309
O12	O	0.167754	-0.687031	0.189691
O13	O	-0.429372	-1.094052	-0.100614
O14	O	0.070628	-0.594052	0.399386
O15	O	-0.204115	-0.971996	-0.249318
O16	O	0.295885	-0.471996	0.250682
O17	O	-0.429354	-1.203800	-0.210362
O18	O	0.070646	-0.703800	0.289638
O19	O	-0.204100	-1.055150	-0.332472
O20	O	0.295900	-0.555150	0.167528
O21	O	-0.332279	-0.994128	-0.117407
O22	O	0.167721	-0.494128	0.382593
O23	O	-0.332236	-0.884417	-0.227125
O24	O	0.167764	-0.384417	0.272875
O25	O	-0.429278	-1.010962	-0.403212
O26	O	0.070722	-0.510962	0.096788
O27	O	-0.429297	-0.901214	-0.293465
O28	O	0.070703	-0.401214	0.206535
O29	O	-0.332203	-1.077319	-0.420027
O30	O	0.167797	-0.577319	0.079973
O31	O	-0.557475	-1.116221	-0.188170
O32	O	-0.057475	-0.616221	0.311830
O33	O	-0.557442	-1.033095	-0.271302
O34	O	-0.057442	-0.533095	0.228698
C35	C	-0.380764	-0.868256	-0.260292
C36	C	0.119236	-0.368256	0.239708
C37	C	-0.380775	-0.793026	-0.260295
C38	C	0.119225	-0.293026	0.239705
C39	C	-0.586137	-1.079634	-0.224787
C40	C	-0.086137	-0.579634	0.275213
C41	C	-0.673988	-1.094891	-0.209610
C42	C	-0.173988	-0.594891	0.290390
C43	C	-0.431390	-0.766459	-0.294754
C44	C	0.068610	-0.266459	0.205246
C45	C	-0.431390	-0.695771	-0.294761
C46	C	0.068610	-0.195771	0.205239
C47	C	-0.380778	-0.651651	-0.260306
C48	C	0.119222	-0.151651	0.239694
C49	C	-0.330158	-0.678222	-0.225846
C50	C	0.169842	-0.178222	0.274154
C51	C	-0.330155	-0.748909	-0.225843
C52	C	0.169845	-0.248909	0.274157
C53	C	-0.330169	-0.393151	-0.225859
C54	C	0.169831	0.106849	0.274141
C55	C	-0.330178	-0.322460	-0.225863
C56	C	0.169822	0.177540	0.274137
C57	C	-0.431405	-0.340013	-0.294778
C58	C	0.068595	0.159987	0.205222
C59	C	-0.431402	-0.410699	-0.294774
C60	C	0.068598	0.089301	0.205226
C61	C	-0.380779	-0.437264	-0.260318
C62	C	0.119221	0.062736	0.239682
C63	C	-0.380778	-0.513912	-0.260311
C64	C	0.119222	-0.013912	0.239689
C65	C	-0.380782	-0.575005	-0.260308
C66	C	0.119218	-0.075005	0.239692
C67	C	-0.962972	-0.928487	-0.375856
C68	C	-0.462972	-0.428487	0.124144
C69	C	-1.045522	-0.942825	-0.361574
C70	C	-0.545522	-0.442825	0.138426
C71	C	-1.045490	-1.029439	-0.275096
C72	C	-0.545490	-0.529439	0.224904
C73	C	-0.962939	-1.015111	-0.289373
C74	C	-0.462939	-0.515111	0.210627
C75	C	-0.921686	-0.964634	-0.339754
C76	C	-0.421686	-0.464634	0.160246
C77	C	-0.921653	-1.051257	-0.253271
C78	C	-0.421653	-0.551257	0.246729
C79	C	-0.839109	-1.036927	-0.267545
C80	C	-0.339109	-0.536927	0.232455
C81	C	-0.797851	-0.986451	-0.317921
C82	C	-0.297851	-0.486451	0.182079
C83	C	-0.839142	-0.950304	-0.354028
C84	C	-0.339142	-0.450304	0.145972
C85	C	-0.962907	-1.101730	-0.202888
C86	C	-0.462907	-0.601730	0.297112
C87	C	-0.921622	-1.137876	-0.166785
C88	C	-0.421622	-0.637876	0.333215
C89	C	-0.839076	-1.123550	-0.181062
C90	C	-0.339076	-0.623550	0.318938
C91	C	-0.797818	-1.073074	-0.231439
C92	C	-0.297818	-0.573074	0.268561
C93	C	-0.797785	-1.159698	-0.144956
C94	C	-0.297785	-0.659698	0.355044
C95	C	-0.715241	-1.145368	-0.159230
C96	C	-0.215241	-0.645368	0.340770
C97	C	-0.715274	-1.058745	-0.245713
C98	C	-0.215274	-0.558745	0.254287
C99	C	-0.174627	-1.008476	-0.295997
C100	C	0.325373	-0.508476	0.204003
C101	C	-0.086776	-0.993289	-0.311203
C102	C	0.413224	-0.493289	0.188797
C103	C	-0.380733	-1.044145	-0.436867
C104	C	0.119267	-0.544145	0.063133
C105	C	-0.380712	-1.044157	-0.512102
C106	C	0.119288	-0.544157	-0.012102
C107	C	-0.380797	-0.220661	-0.260333
C108	C	0.119203	0.279339	0.239667
C109	C	-0.380790	-0.295891	-0.260326
C110	C	0.119210	0.204109	0.239674
C111	C	-0.330162	-1.078710	-0.556203
C112	C	0.169838	-0.578710	-0.056203
C113	C	-0.330139	-1.078713	-0.626896
C114	C	0.169861	-0.578713	-0.126896
C115	C	-0.380671	-1.044167	-0.653485
C116	C	0.119329	-0.544167	-0.153485
C117	C	-0.431223	-1.009610	-0.609379
C118	C	0.068777	-0.509610	-0.109379
C119	C	-0.431241	-1.009603	-0.538688
C120	C	0.068759	-0.509603	-0.038688
C121	C	-0.431149	-1.009635	-0.894465
C122	C	0.068851	-0.509635	-0.394465
C123	C	-0.431128	-1.009646	-0.965160
C124	C	0.068872	-0.509646	-0.465160
C125	C	-0.330047	-1.078745	-0.982672
C126	C	0.169953	-0.578745	-0.482672
C127	C	-0.330066	-1.078738	-0.911982
C128	C	0.169934	-0.578738	-0.411982
C129	C	-0.380614	-1.044179	-0.867882
C130	C	0.119386	-0.544179	-0.367882
C131	C	-0.380638	-1.044175	-0.791230
C132	C	0.119362	-0.544175	-0.291230
C133	C	-0.380652	-1.044175	-0.730135
C134	C	0.119348	-0.544175	-0.230135
C135	C	-0.380776	-1.044115	-0.084460
C136	C	0.119224	-0.544115	0.415540
C137	C	-0.380574	-1.044195	-0.009264
C138	C	0.119426	-0.544195	0.490736
H139	H	-0.472607	-0.802378	-0.322809
H140	H	0.027393	-0.302378	0.177191
H141	H	-0.730638	-0.974780	-0.329537
H142	H	-0.230638	-0.474780	0.170463
H143	H	-1.079134	-0.913395	-0.390985
H144	H	-0.579134	-0.413395	0.109015
Cl145	Cl	-0.663407	-0.995294	-0.309055
Cl146	Cl	-0.163407	-0.495294	0.190945
H147	H	-0.831385	-1.200791	-0.103932
H148	H	-0.331385	-0.700791	0.396068
Cl149	Cl	-0.266526	-0.622756	-0.182535
Cl150	Cl	0.233474	-0.122756	0.317465
Cl151	Cl	-0.266541	-1.122172	-0.878559
Cl152	Cl	0.233459	-0.622172	-0.378559
H153	H	-0.472607	-0.674144	-0.322820
H154	H	0.027393	-0.174144	0.177180
Cl155	Cl	-0.787276	-0.886853	-0.417370
Cl156	Cl	-0.287276	-0.386853	0.082630
Cl157	Cl	-0.494696	-0.966189	-0.839034
Cl158	Cl	0.005304	-0.466189	-0.339034
Cl159	Cl	-1.097358	-1.092894	-0.211765
Cl160	Cl	-0.597358	-0.592894	0.288235
H161	H	-0.472622	-0.318375	-0.322837
H162	H	0.027378	0.181625	0.177163
Cl163	Cl	-0.266637	-1.122146	-0.522784
Cl164	Cl	0.233363	-0.622146	-0.022784
Cl165	Cl	-0.495033	-0.466161	-0.338089
Cl166	Cl	0.004967	0.033839	0.161911
H167	H	-0.288959	-0.286538	-0.197806
H168	H	0.211041	0.213462	0.302194
Cl169	Cl	-0.266623	-1.122189	-0.682329
Cl170	Cl	0.233377	-0.622189	-0.182329
H171	H	-0.288885	-1.106883	-1.018588
H172	H	0.211115	-0.606883	-0.518588
H173	H	-0.472279	-0.981512	-0.986806
H174	H	0.027721	-0.481512	-0.486806
H175	H	-0.288955	-0.414772	-0.197796
H176	H	0.211045	0.085228	0.302204
Cl177	Cl	-0.266519	-0.782307	-0.182523
Cl178	Cl	0.233481	-0.282307	0.317477
Cl179	Cl	-0.494745	-0.966177	-0.642806
Cl180	Cl	0.005255	-0.466177	-0.142806
H181	H	-0.929383	-0.887389	-0.416886
H182	H	-0.429383	-0.387389	0.083114
Cl183	Cl	-0.494789	-0.966161	-0.483246
Cl184	Cl	0.005211	-0.466161	0.016754
H185	H	-1.030120	-1.113397	-0.191269
H186	H	-0.530120	-0.613397	0.308731
H187	H	-0.681625	-1.174802	-0.129831
H188	H	-0.181625	-0.674802	0.370169
Cl189	Cl	-0.973489	-1.201332	-0.103454
Cl190	Cl	-0.473489	-0.701332	0.396546
