data_functionalizedCrystal
_audit_creation_method	'MofGen! by Chris Wilmer'
_symmetry_space_group_name_H-M	'P1'
_symmetry_Int_Tables_number	1
_symmetry_cell_setting	triclinic
loop_
_symmetry_equiv_pos_as_xyz
  x,y,z
_cell_length_a	20.875641
_cell_length_b	20.875650
_cell_length_c	21.606444
_cell_angle_alpha	57.600288
_cell_angle_beta	90.001072
_cell_angle_gamma	64.829700
loop_
_atom_site_label
_atom_site_type_symbol
_atom_site_fract_x
_atom_site_fract_y
_atom_site_fract_z
Zr1	Zr	0.622739	0.747592	-0.129523
O2	O	0.528465	0.874458	-0.229464
O3	O	0.648319	0.615689	-0.095503
O4	O	0.653100	0.749824	-0.229503
O5	O	0.523690	0.740319	0.006390
O6	O	0.755190	0.757314	-0.233382
O7	O	0.523684	0.740323	-0.095464
O8	O	0.746639	0.517371	0.006320
O9	O	0.532241	0.980262	-0.233312
O10	O	0.739428	0.677398	-0.087975
O11	O	0.663243	0.671805	-0.009068
O12	O	0.668872	0.829731	-0.166836
O13	O	0.592687	0.824138	-0.087929
Zr14	Zr	0.785569	0.759531	0.026736
Zr15	Zr	0.785561	0.759538	-0.135709
Zr16	Zr	0.622747	0.747585	0.032923
Zr17	Zr	0.628761	0.916337	-0.135660
Zr18	Zr	0.779547	0.590786	0.032873
O19	O	0.759988	0.891434	-0.007284
O20	O	0.759977	0.891444	-0.238260
O21	O	0.528476	0.874448	0.001512
O22	O	0.879843	0.632665	0.126678
O23	O	0.879831	0.632675	-0.104299
O24	O	0.648331	0.615679	0.135474
O25	O	0.884618	0.766804	-0.109177
O26	O	0.755208	0.757299	0.126717
O27	O	0.653118	0.749809	0.130596
O28	O	0.884623	0.766800	-0.007323
O29	O	0.661662	0.989757	-0.238229
O30	O	0.746645	0.517366	0.135443
O31	O	0.876067	0.526861	0.130525
O32	O	0.876060	0.526867	0.001403
O33	O	0.532247	0.980256	-0.104190
O34	O	0.661669	0.989752	-0.109107
O35	O	0.739436	0.677392	0.064050
O36	O	0.815621	0.682985	-0.014858
O37	O	0.745064	0.835318	-0.093719
O38	O	0.668879	0.829725	-0.014811
C39	C	0.696621	0.542487	-0.043717
C40	C	0.694064	0.470851	-0.041112
C41	C	0.675657	0.067030	-0.021733
C42	C	0.678021	0.134382	-0.024227
C43	C	0.718967	0.170979	-0.066668
C44	C	0.757558	0.140215	-0.106612
C45	C	0.755197	0.072860	-0.104113
C46	C	0.730295	0.372731	-0.078556
C47	C	0.732650	0.440093	-0.081054
C48	C	0.653115	0.434254	0.001332
C49	C	0.650754	0.366902	0.003824
C50	C	0.689348	0.336140	-0.036116
N51	N	0.721383	0.239825	-0.069221
N52	N	0.686936	0.267291	-0.033559
C53	C	0.500488	0.738619	-0.043655
C54	C	0.431366	0.733547	-0.041029
C55	C	0.362063	0.810679	-0.080958
C56	C	0.297117	0.805909	-0.078493
C57	C	0.301477	0.724006	-0.036094
C58	C	0.370789	0.646868	0.003836
C59	C	0.435732	0.651639	0.001366
C60	C	0.111196	0.701209	-0.024297
C61	C	0.046245	0.696444	-0.021829
C62	C	-0.027422	0.855485	-0.104159
C63	C	0.037526	0.860249	-0.106622
C64	C	0.106831	0.783112	-0.066695
N65	N	0.235094	0.719128	-0.033571
N66	N	0.173213	0.787991	-0.069222
C67	C	0.907819	0.768504	-0.059131
C68	C	0.976941	0.773576	-0.061758
C69	C	0.704144	0.753570	-0.254588
C70	C	0.704140	0.753573	-0.323550
C71	C	0.711686	0.964636	-0.059070
C72	C	0.714243	1.036272	-0.061675
C73	C	0.667310	0.833089	-0.397114
C74	C	0.667317	0.833087	-0.461909
C75	C	0.704149	0.753567	-0.453138
C76	C	0.740984	0.674045	-0.379568
C77	C	0.740982	0.674049	-0.314774
C78	C	0.740996	0.674030	-0.640870
C79	C	0.740993	0.674033	-0.705671
C80	C	0.667330	0.833068	-0.788005
C81	C	0.667328	0.833072	-0.723211
C82	C	0.704166	0.753551	-0.649647
C83	C	0.704160	0.753554	-0.579389
C84	C	0.704151	0.753563	-0.523394
C85	C	0.704164	0.753553	0.151801
C86	C	0.704167	0.753550	0.220764
C87	C	0.900286	0.557430	-0.051455
C88	C	0.966852	0.490865	-0.051476
C89	C	0.696631	0.542479	0.159478
C90	C	0.694078	0.470840	0.231045
C91	C	0.900296	0.557422	0.151739
C92	C	0.966865	0.490854	0.220681
C93	C	0.508011	0.949701	-0.254526
C94	C	0.441442	1.016269	-0.323467
C95	C	0.508021	0.949693	-0.051332
C96	C	0.441455	1.016258	-0.051311
C97	C	0.711676	0.964644	-0.262264
C98	C	0.714230	1.036283	-0.333832
C99	C	0.958340	0.456689	-0.089660
C100	C	1.020880	0.394153	-0.089695
C101	C	1.091930	0.365789	-0.051541
C102	C	1.100441	0.399972	-0.013357
C103	C	1.037902	0.462511	-0.013327
C104	C	0.732650	0.440113	0.302828
C105	C	0.730249	0.372809	0.370079
C106	C	0.689279	0.336229	0.365546
C107	C	0.650701	0.366962	0.293756
C108	C	0.653099	0.434268	0.226506
C109	C	1.037901	0.462513	0.211867
C110	C	1.100457	0.399975	0.276638
C111	C	1.091974	0.365775	0.350222
C112	C	1.020931	0.394122	0.359034
C113	C	0.958377	0.456663	0.294264
C114	C	0.370406	1.044618	-0.314654
C115	C	0.307852	1.107177	-0.379426
C116	C	0.316335	1.141381	-0.453010
C117	C	0.387378	1.113030	-0.461822
C118	C	0.449931	1.050477	-0.397051
C119	C	0.449967	1.050441	-0.013134
C120	C	0.387429	1.112996	-0.013118
C121	C	0.316378	1.141362	-0.051274
C122	C	0.307868	1.107176	-0.089455
C123	C	0.370406	1.044627	-0.089475
C124	C	0.755207	1.072843	-0.329274
C125	C	0.757620	1.140148	-0.396514
C126	C	0.719052	1.170897	-0.468310
C127	C	0.678073	1.134330	-0.472866
C128	C	0.675664	1.067022	-0.405627
H129	H	0.621695	0.459307	0.033850
C130	C	0.220888	0.890763	-0.122411
C131	C	0.166098	0.909385	-0.185502
C132	C	0.089870	0.994248	-0.229422
C133	C	0.068431	1.060488	-0.210252
C134	C	0.123222	1.041867	-0.147158
C135	C	0.199450	0.957005	-0.103238
H136	H	0.181967	0.860349	-0.199696
H137	H	0.049310	1.008031	-0.276129
H138	H	0.012002	1.123308	-0.242765
H139	H	0.107353	1.090904	-0.132964
H140	H	0.240010	0.943221	-0.056531
C141	C	0.361063	1.007008	-0.233717
C142	C	0.282917	1.038211	-0.224039
C143	C	0.273566	1.000610	-0.143105
C144	C	0.342360	0.931805	-0.071848
C145	C	0.420512	0.900597	-0.081523
C146	C	0.429863	0.938199	-0.162458
H147	H	0.231986	1.089148	-0.276790
H148	H	0.215713	1.023712	-0.135943
H149	H	0.335438	0.903970	-0.011935
H150	H	0.471443	0.849660	-0.028772
H151	H	0.487716	0.915097	-0.169620
H152	H	0.265394	1.192315	-0.505744
C153	C	-0.103656	0.940333	-0.148084
C154	C	-0.175096	0.935093	-0.145374
C155	C	-0.251332	1.019945	-0.189303
C156	C	-0.256128	1.110036	-0.235942
C157	C	-0.184686	1.115279	-0.238654
C158	C	-0.108451	1.030427	-0.194725
H159	H	-0.171547	0.868399	-0.110847
H160	H	-0.304218	1.016063	-0.187295
H161	H	-0.312563	1.172848	-0.268461
H162	H	-0.188235	1.181973	-0.273181
H163	H	-0.055565	1.034309	-0.196732
H164	H	0.646672	1.159376	-0.531331
H165	H	0.766013	0.469890	0.306533
C166	C	0.802693	1.180368	-0.391490
C167	C	0.886767	1.121913	-0.350749
C168	C	0.931838	1.162131	-0.345722
C169	C	0.892834	1.260803	-0.381436
C170	C	0.808755	1.319264	-0.422180
C171	C	0.763684	1.279047	-0.427206
H172	H	0.915644	1.048864	-0.324309
H173	H	0.994080	1.118853	-0.315561
H174	H	0.926199	1.290575	-0.377715
H175	H	0.779878	1.392313	-0.448620
H176	H	0.701443	1.322324	-0.457367
H177	H	0.900538	0.479730	0.301451
C178	C	0.051042	0.606345	0.024790
C179	C	0.127273	0.521495	0.068692
C180	C	0.132067	0.431401	0.115299
C181	C	0.060630	0.426157	0.118004
C182	C	-0.015607	0.511010	0.074100
C183	C	-0.020401	0.601104	0.027493
H184	H	0.180160	0.525374	0.066691
H185	H	0.188503	0.368588	0.147799
H186	H	0.064179	0.359465	0.152506
H187	H	-0.068494	0.507131	0.076101
H188	H	-0.076837	0.663917	-0.005007
H189	H	1.014035	0.366267	0.418955
C190	C	1.178597	0.368798	0.266932
C191	C	1.200812	0.324277	0.226065
C192	C	1.278950	0.293102	0.216356
C193	C	1.334873	0.306448	0.247515
C194	C	1.312659	0.350971	0.288385
C195	C	1.234522	0.382146	0.298094
H196	H	1.159413	0.314395	0.202997
H197	H	1.295393	0.260143	0.186101
H198	H	1.392715	0.283370	0.240327
H199	H	1.354058	0.360852	0.311453
H200	H	1.218078	0.415105	0.328348
C201	C	0.781511	0.586559	-0.559956
C202	C	0.781519	0.586550	-0.488679
C203	C	0.822037	0.499074	-0.407759
C204	C	0.862547	0.411607	-0.398115
C205	C	0.862541	0.411613	-0.469393
C206	C	0.822023	0.499089	-0.550314
H207	H	0.751530	0.651302	-0.495816
H208	H	0.822042	0.499071	-0.354993
H209	H	0.892541	0.346852	-0.338212
H210	H	0.892530	0.346862	-0.462256
H211	H	0.822019	0.499093	-0.603079
C212	C	0.528070	1.019291	-0.406753
C213	C	0.537391	1.056918	-0.487697
C214	C	0.615529	1.025738	-0.497405
C215	C	0.684345	0.956932	-0.426170
C216	C	0.675025	0.919302	-0.345221
C217	C	0.596888	0.950481	-0.335512
H218	H	0.486447	1.107856	-0.540434
H219	H	0.622427	1.053595	-0.557330
H220	H	0.742187	0.933851	-0.433357
H221	H	0.725969	0.868364	-0.292484
H222	H	0.589990	0.922624	-0.275588
C223	C	0.777683	0.480361	-0.127753
C224	C	0.820126	0.446536	-0.171695
C225	C	0.865148	0.486813	-0.218400
C226	C	0.867727	0.560916	-0.221163
C227	C	0.825282	0.594746	-0.177219
C228	C	0.780260	0.554469	-0.130514
H229	H	0.818219	0.391677	-0.169651
H230	H	0.896568	0.461769	-0.250930
H231	H	0.901055	0.590732	-0.255737
H232	H	0.827190	0.649605	-0.179263
H233	H	0.748840	0.579512	-0.097984
C234	C	1.011506	0.356553	-0.131692
C235	C	0.972050	0.418282	-0.218646
C236	C	0.962674	0.380683	-0.260641
C237	C	0.992753	0.281355	-0.215682
C238	C	1.032211	0.219619	-0.128722
C239	C	1.041587	0.257218	-0.086727
H240	H	0.949782	0.491816	-0.251932
H241	H	0.933464	0.426385	-0.325015
H242	H	0.985812	0.253522	-0.246769
H243	H	1.054479	0.146085	-0.095436
H244	H	1.070797	0.211517	-0.022354
H245	H	0.374334	0.580181	0.038355
H246	H	0.394276	1.140887	-0.521742
H247	H	0.250010	1.130282	-0.120520
C248	C	0.229711	1.138346	-0.369720
C249	C	0.207496	1.182836	-0.328827
C250	C	0.129358	1.214002	-0.319119
C251	C	0.073434	1.200677	-0.350304
C252	C	0.095647	1.156185	-0.391200
C253	C	0.173785	1.125019	-0.400908
H254	H	0.248896	1.192702	-0.305739
H255	H	0.112914	1.246938	-0.288844
H256	H	0.015591	1.223747	-0.343117
H257	H	0.054247	1.146319	-0.414288
H258	H	0.190228	1.092083	-0.431183
C259	C	1.178600	0.368757	0.028616
C260	C	1.204818	0.435268	0.004648
C261	C	1.282980	0.404045	0.046626
C262	C	1.334924	0.306311	0.112572
C263	C	1.308707	0.239795	0.136544
C264	C	1.230545	0.271018	0.094566
H265	H	1.166365	0.507621	-0.044172
H266	H	1.302387	0.453285	0.028881
H267	H	1.392784	0.283198	0.143647
H268	H	1.347160	0.167441	0.185364
H269	H	1.211138	0.221777	0.112311
H270	H	0.786614	1.047818	-0.270821
C271	C	0.630615	0.026777	0.024954
C272	C	0.628013	-0.047309	0.027705
C273	C	0.582972	-0.087562	0.074395
C274	C	0.540532	-0.053730	0.118334
C275	C	0.543133	0.020361	0.115585
C276	C	0.588174	0.060614	0.068895
H277	H	0.659431	-0.072358	-0.004823
H278	H	0.581048	-0.142409	0.076430
H279	H	0.507190	-0.083527	0.152897
H280	H	0.511715	0.045410	0.148113
H281	H	0.590099	0.115461	0.066860
H282	H	0.646606	0.159418	0.008303
C283	C	0.605638	0.326716	0.288778
C284	C	0.603011	0.252678	0.362756
C285	C	0.557950	0.212427	0.357780
C286	C	0.515516	0.246215	0.278826
C287	C	0.518141	0.320257	0.204842
C288	C	0.563202	0.360508	0.209818
H289	H	0.634425	0.227662	0.421208
H290	H	0.556008	0.157616	0.412549
H291	H	0.482160	0.216419	0.275143
H292	H	0.486727	0.345272	0.146390
H293	H	0.565145	0.415319	0.155049
H294	H	0.507815	1.027350	0.017942
H295	H	0.167618	0.638398	0.008204
C296	C	0.626813	0.920543	-0.732859
C297	C	0.563104	0.938486	-0.697604
C298	C	0.522592	1.025959	-0.707253
C299	C	0.545789	1.095490	-0.752155
C300	C	0.609501	1.077549	-0.787413
C301	C	0.650013	0.990076	-0.777764
H302	H	0.545930	0.887014	-0.664362
H303	H	0.475428	1.039240	-0.681152
H304	H	0.515799	1.160243	-0.759298
H305	H	0.626676	1.129021	-0.820655
H306	H	0.697178	0.976795	-0.803864
H307	H	0.617413	0.337108	0.038385
H308	H	0.761717	0.347692	-0.111078
H309	H	0.637337	0.897819	-0.847911
H310	H	0.492162	0.588830	0.033888
H311	H	0.687333	0.281424	0.420311
H312	H	0.637312	0.897842	-0.404263
H313	H	0.790901	0.170012	-0.141165
H314	H	0.394372	1.140820	0.017977
H315	H	0.761666	0.347795	0.428527
H316	H	0.265462	1.192294	-0.051251
H317	H	0.786619	0.047816	-0.136636
H318	H	0.358504	0.877374	-0.115473
H319	H	0.363465	1.016796	-0.120561
H320	H	0.621691	0.459277	0.168061
H321	H	0.033968	0.926944	-0.141162
H322	H	0.637327	0.897837	-0.521805
H323	H	0.770989	0.609275	-0.698522
H324	H	0.721019	1.225704	-0.523054
H325	H	0.770978	0.609300	-0.372432
H326	H	1.044843	0.490329	0.017771
H327	H	1.142915	0.314850	0.402956
H328	H	0.770972	0.609299	-0.254876
H329	H	1.044822	0.490350	0.151957
H330	H	1.142847	0.314864	-0.051571
H331	H	0.900493	0.479782	-0.120738
H332	H	0.642293	1.037262	-0.409349
