data_functionalizedCrystal
_audit_creation_method	'MofGen! by Chris Wilmer'
_symmetry_space_group_name_H-M	'P1'
_symmetry_Int_Tables_number	1
_symmetry_cell_setting	triclinic
loop_
_symmetry_equiv_pos_as_xyz
  x,y,z
_cell_length_a	12.759400
_cell_length_b	12.759401
_cell_length_c	12.759393
_cell_angle_alpha	89.982891
_cell_angle_beta	89.968123
_cell_angle_gamma	90.013728
loop_
_atom_site_label
_atom_site_type_symbol
_atom_site_fract_x
_atom_site_fract_y
_atom_site_fract_z
Zn1	Zn	-0.418228	1.606240	-0.593983
Zn2	Zn	-0.593948	1.606139	-0.418303
Zn3	Zn	-0.418280	1.430547	-0.418323
Zn4	Zn	-0.593862	1.430531	-0.593945
O5	O	-0.506080	1.518364	-0.506138
O6	O	-0.441551	1.753248	-0.570687
O7	O	-0.570703	1.582811	-0.271285
O8	O	-0.271252	1.453902	-0.441648
O9	O	-0.570652	1.753174	-0.441616
O10	O	-0.271214	1.582983	-0.570706
O11	O	-0.441641	1.453804	-0.271299
O12	O	-0.441558	1.283524	-0.441611
O13	O	-0.570506	1.453875	-0.740971
O14	O	-0.570557	1.283512	-0.570640
O15	O	-0.441469	1.582968	-0.740999
O16	O	-0.740957	1.582795	-0.441579
O17	O	-0.740895	1.453777	-0.570621
C18	C	-0.506055	1.245397	-0.506124
C19	C	-0.506070	1.128620	-0.506143
C20	C	-0.438974	1.073790	-0.573454
C21	C	-0.438994	0.964066	-0.573461
C22	C	-0.573215	0.964012	-0.438841
C23	C	-0.573189	1.073734	-0.438830
C24	C	-0.361486	1.073820	-0.651179
C25	C	-0.361506	0.964096	-0.651185
C26	C	-0.779047	1.518302	-0.506117
C27	C	-0.895824	1.518371	-0.506142
C28	C	-0.950683	1.585626	-0.439024
C29	C	-1.060407	1.585690	-0.439056
C30	C	-1.060402	1.451237	-0.573328
C31	C	-0.950680	1.451179	-0.573301
C32	C	-0.950687	1.663249	-0.361500
C33	C	-1.060411	1.663313	-0.361532
C34	C	-0.232046	1.518456	-0.506183
C35	C	-0.115270	1.518494	-0.506203
C36	C	-0.505972	1.518431	-0.780172
C37	C	-0.505926	1.518459	-0.896949
C38	C	-0.506105	1.792398	-0.506154
C39	C	-0.506116	1.909174	-0.506160
C40	C	-0.573062	1.451306	-1.061523
C41	C	-0.573092	1.451266	-0.951798
C42	C	-0.438718	1.585690	-0.951829
C43	C	-0.438683	1.585724	-1.061551
C44	C	-0.650645	1.373701	-1.061504
C45	C	-0.650676	1.373661	-0.951780
C46	C	-0.506111	1.518358	-0.233171
C47	C	-0.505861	1.518534	-0.116395
H48	H	-0.627861	0.919311	-0.384038
H49	H	-1.094357	1.740616	-0.390744
H50	H	-0.280083	1.103588	-0.629525
C51	C	-0.364772	1.659679	-1.121912
H52	H	-0.374369	1.650077	-1.195114
H53	H	-0.380165	1.730256	-1.103918
H54	H	-0.294179	1.644320	-1.103954
C55	C	-0.755041	1.413057	-1.107468
H56	H	-0.751454	1.411748	-1.181829
H57	H	-0.810483	1.368976	-1.084468
H58	H	-0.767580	1.482746	-1.084474
H59	H	-0.920831	1.744591	-0.383351
H60	H	-0.284178	0.930055	-0.622186
C61	C	-0.611309	1.269243	-0.905811
H62	H	-0.593765	1.222767	-0.961266
H63	H	-0.551065	1.281737	-0.863925
H64	H	-0.664823	1.238800	-0.863893
C65	C	-0.400963	1.119845	-0.755519
H66	H	-0.418557	1.064415	-0.801994
H67	H	-0.461194	1.161747	-0.742928
H68	H	-0.347480	1.161758	-0.786017
C69	C	-0.760545	1.403287	-0.911516
H70	H	-0.805713	1.415485	-0.969415
H71	H	-0.787731	1.347688	-0.870094
H72	H	-0.755952	1.465050	-0.870210
H73	H	-0.383400	0.934349	-0.732521
C74	C	-0.646985	1.134044	-0.364779
H75	H	-0.686965	1.085639	-0.324700
H76	H	-0.606725	1.176829	-0.319073
H77	H	-0.692808	1.176862	-0.404884
H78	H	-1.090274	1.641578	-0.280152
H79	H	-0.906014	1.396424	-0.627963
C80	C	-1.120748	1.377326	-0.647191
H81	H	-1.193952	1.386988	-0.637592
H82	H	-1.102694	1.392651	-0.717789
H83	H	-1.102836	1.306730	-0.631743
H84	H	-0.916740	1.634125	-0.284174
C85	C	-0.364835	1.659598	-0.891497
H86	H	-0.374482	1.649955	-0.818291
H87	H	-0.294237	1.644254	-0.909498
H88	H	-0.380219	1.730194	-0.909472
H89	H	-0.628838	1.292347	-1.091286
