data_functionalizedCrystal
_audit_creation_method	'MofGen! by Chris Wilmer'
_symmetry_space_group_name_H-M	'P1'
_symmetry_Int_Tables_number	1
_symmetry_cell_setting	triclinic
loop_
_symmetry_equiv_pos_as_xyz
  x,y,z
_cell_length_a	16.959455
_cell_length_b	17.637651
_cell_length_c	16.959447
_cell_angle_alpha	78.752498
_cell_angle_beta	89.979626
_cell_angle_gamma	101.214853
loop_
_atom_site_label
_atom_site_type_symbol
_atom_site_fract_x
_atom_site_fract_y
_atom_site_fract_z
Zn1	Zn	1.144780	-0.314809	-0.383322
Zn2	Zn	1.117987	-0.447035	-0.224382
Zn3	Zn	1.012603	-0.314834	-0.251141
Zn4	Zn	0.985870	-0.446976	-0.356519
O5	O	1.065310	-0.380914	-0.303841
O6	O	1.251834	-0.332363	-0.362257
O7	O	1.103983	-0.429533	-0.117314
O8	O	1.052538	-0.204192	-0.291090
O9	O	1.232150	-0.429509	-0.245485
O10	O	1.149647	-0.204173	-0.388204
O11	O	1.026558	-0.332406	-0.136973
O12	O	0.898449	-0.332349	-0.265100
O13	O	1.006974	-0.429409	-0.470692
O14	O	0.878808	-0.429433	-0.342521
O15	O	1.123725	-0.332306	-0.490385
O16	O	1.078061	-0.557666	-0.219495
O17	O	0.980995	-0.557623	-0.316575
C18	C	0.859949	-0.380888	-0.303806
C19	C	0.772091	-0.380896	-0.303806
C20	C	0.390362	-0.431447	-0.243022
C21	C	0.410849	-0.330445	-0.364743
C22	C	0.493397	-0.330432	-0.364726
C23	C	0.524431	-0.380928	-0.303857
C24	C	0.472917	-0.431438	-0.243005
C25	C	0.544916	-0.279930	-0.425582
C26	C	0.627470	-0.279915	-0.425569
C27	C	0.658506	-0.330408	-0.364696
C28	C	0.606987	-0.380919	-0.303840
C29	C	0.638021	-0.431415	-0.242971
C30	C	0.586504	-0.481922	-0.182112
C31	C	0.503953	-0.481930	-0.182132
C32	C	0.741057	-0.330400	-0.364675
C33	C	0.720577	-0.431405	-0.242954
C34	C	1.023741	-0.586332	-0.262240
C35	C	1.006030	-0.674211	-0.244469
C36	C	1.200373	-0.962892	-0.439092
C37	C	1.183705	-1.045467	-0.422380
C38	C	1.082652	-1.045594	-0.321158
C39	C	1.099314	-0.963017	-0.337859
C40	C	1.158174	-0.921672	-0.396827
C41	C	1.057116	-0.921797	-0.295594
C42	C	1.073773	-0.839227	-0.312297
C43	C	1.132629	-0.797876	-0.371264
C44	C	1.174832	-0.839102	-0.413530
C45	C	0.998252	-0.963143	-0.236630
C46	C	0.956054	-0.921923	-0.194366
C47	C	0.972715	-0.839351	-0.211064
C48	C	1.031571	-0.798001	-0.270031
C49	C	0.930512	-0.798126	-0.168798
C50	C	0.947170	-0.715556	-0.185501
C51	C	1.048228	-0.715431	-0.286734
C52	C	1.271473	-0.380940	-0.303876
C53	C	1.359327	-0.380951	-0.303891
C54	C	1.065356	-0.380848	-0.510022
C55	C	1.065376	-0.380820	-0.597885
C56	C	1.107063	-0.174693	-0.345622
C57	C	1.124856	-0.086814	-0.363426
C58	C	1.004701	-0.431294	-0.959127
C59	C	1.126274	-0.330180	-0.979628
C60	C	1.126249	-0.330197	-0.897079
C61	C	1.065450	-0.380764	-0.845549
C62	C	1.004676	-0.431314	-0.876569
C63	C	1.187028	-0.279653	-0.866051
C64	C	1.187006	-0.279669	-0.783497
C65	C	1.126203	-0.330232	-0.731967
C66	C	1.065425	-0.380784	-0.762992
C67	C	1.004626	-0.431350	-0.711463
C68	C	0.943845	-0.481899	-0.742487
C69	C	0.943873	-0.481877	-0.825039
C70	C	1.126175	-0.330253	-0.649414
C71	C	1.004601	-0.431370	-0.628905
C72	C	1.065321	-0.380922	-0.098473
C73	C	1.065500	-0.380727	-0.010656
H74	H	0.348413	-0.472567	-0.193470
H75	H	0.912807	-0.681994	-0.151085
H76	H	1.248309	-0.929227	-0.487104
H77	H	0.984684	-1.030377	-0.223040
H78	H	0.894390	-0.523033	-0.850307
H79	H	0.782998	-0.289279	-0.414227
Br80	Br	0.628630	-0.550457	-0.099513
Br81	Br	0.922212	-0.499887	-1.001229
Br82	Br	0.368728	-0.261929	-0.447356
H83	H	1.175777	-0.289015	-1.021586
H84	H	1.096164	-0.681767	-0.334746
H85	H	1.222768	-0.805438	-0.461542
H86	H	1.218062	-1.079026	-0.456812
H87	H	0.462001	-0.523050	-0.132583
H88	H	1.236531	-0.238489	-0.908010
H89	H	1.146191	-0.730642	-0.384862
H90	H	0.955085	-0.472541	-0.586956
H91	H	0.669409	-0.238789	-0.475124
Br92	Br	0.861340	-0.550529	-0.672544
Br93	Br	0.502792	-0.211417	-0.508196
H94	H	1.034727	-1.079268	-0.273148
H95	H	1.236498	-0.238509	-0.758245
Br96	Br	0.876166	-0.978040	-0.114348
Br97	Br	0.850619	-0.854246	-0.088788
H98	H	0.745838	-0.472523	-0.193384
H99	H	1.175664	-0.289100	-0.624157
