data_functionalizedCrystal
_audit_creation_method	'MofGen! by Chris Wilmer'
_symmetry_space_group_name_H-M	'P1'
_symmetry_Int_Tables_number	1
_symmetry_cell_setting	triclinic
loop_
_symmetry_equiv_pos_as_xyz
  x,y,z
_cell_length_a	14.446369
_cell_length_b	17.052862
_cell_length_c	17.052862
_cell_angle_alpha	87.392044
_cell_angle_beta	50.260931
_cell_angle_gamma	50.256685
loop_
_atom_site_label
_atom_site_type_symbol
_atom_site_fract_x
_atom_site_fract_y
_atom_site_fract_z
Zr1	Zr	0.669221	0.043787	0.922391
O2	O	0.994376	-0.141632	0.736989
O3	O	0.435623	0.100634	0.979226
O4	O	0.714999	-0.104225	0.941834
O5	O	0.646962	0.224816	0.803876
O6	O	0.646961	-0.074724	1.103420
O7	O	0.715000	0.063227	0.774381
O8	O	0.147208	0.291730	1.170307
O9	O	1.146714	-0.141639	0.736989
O10	O	0.447019	0.146887	1.124055
O11	O	0.447019	0.245463	1.025478
O12	O	0.775948	0.004268	0.981454
O13	O	0.775949	0.102845	0.882876
Zr14	Zr	0.452194	0.348552	1.227143
Zr15	Zr	0.560707	0.090836	1.180101
Zr16	Zr	0.560708	0.301503	0.969433
Zr17	Zr	0.912183	0.043776	0.922391
Zr18	Zr	0.209232	0.348564	1.227143
O19	O	0.685791	0.291705	1.170308
O20	O	0.840083	-0.074733	1.103420
O21	O	0.840084	0.224807	0.803877
O22	O	0.127039	0.533971	1.412545
O23	O	0.281331	0.167532	1.345657
O24	O	0.281332	0.467072	1.046114
O25	O	0.474453	0.167523	1.345657
O26	O	0.406415	0.496564	1.207700
O27	O	0.474454	0.467063	1.046114
O28	O	0.406415	0.329112	1.375153
O29	O	1.060460	-0.104241	0.941834
O30	O	0.060955	0.496580	1.207700
O31	O	-0.025300	0.533978	1.412545
O32	O	0.060954	0.329128	1.375153
O33	O	1.060461	0.063211	0.774381
O34	O	0.974206	0.100609	0.979226
O35	O	0.345466	0.388071	1.168080
O36	O	0.345466	0.289494	1.266657
O37	O	0.674395	0.146876	1.124056
O38	O	0.674396	0.245452	1.025478
C39	C	0.256799	0.196184	1.074767
C40	C	0.153655	0.196189	1.074767
C41	C	0.696442	0.137318	0.752410
C42	C	0.742509	0.117344	0.643006
C43	C	0.424974	0.518533	1.133610
C44	C	0.378907	0.627940	1.153580
C45	C	0.006346	0.258776	1.013022
C46	C	0.114269	0.258392	1.012554
C47	C	0.281191	0.055015	0.995364
C48	C	0.174030	0.055308	0.994868
C49	C	-0.157590	0.273658	1.215761
C50	C	-0.052484	0.276296	1.216057
C51	C	0.864616	0.196155	1.074767
C52	C	0.967759	0.196150	1.074767
C53	C	0.696441	-0.126193	1.015924
C54	C	0.742507	-0.235600	0.995954
C55	C	0.935855	0.638554	0.912133
C56	C	0.979141	0.535759	0.893372
C57	C	0.829087	0.558798	0.958422
C58	C	0.635738	0.684644	1.042237
C59	C	0.592445	0.787451	1.061008
C60	C	0.485676	0.707695	1.107297
C61	C	0.292328	0.833541	1.191112
C62	C	0.249043	0.936336	1.209878
C63	C	0.399097	0.913297	1.144828
C64	C	0.528970	0.604888	1.088526
C65	C	0.185559	0.753785	1.237401
C66	C	0.142273	0.856580	1.256162
C67	C	0.185558	0.358824	0.632364
C68	C	0.142273	0.377586	0.735157
C69	C	0.292328	0.312528	0.712125
C70	C	0.485676	0.228704	0.586289
C71	C	0.528969	0.209932	0.483484
C72	C	0.635738	0.163636	0.563245
C73	C	0.829087	0.079811	0.437409
C74	C	0.872371	0.061045	0.334617
C75	C	0.722316	0.126103	0.357649
C76	C	0.592445	0.182407	0.666049
C77	C	0.935856	0.033515	0.517170
C78	C	0.979141	0.014753	0.414377
C79	C	0.424973	0.255021	1.397123
C80	C	0.378906	0.274995	1.506528
C81	C	0.121064	0.255036	1.397123
C82	C	-0.028146	0.275014	1.506528
C83	C	0.121065	0.518547	1.133609
C84	C	-0.028145	0.627959	1.153580
C85	C	-0.014669	0.577399	1.455966
C86	C	-0.209947	0.706784	1.585341
C87	C	1.136084	-0.185059	0.693568
C88	C	1.331361	-0.314445	0.564193
C89	C	1.000350	0.137304	0.752411
C90	C	1.149561	0.117325	0.643006
C91	C	1.000349	-0.126208	1.015924
C92	C	1.149560	-0.235620	0.995954
C93	C	-0.045203	0.209946	1.483467
C94	C	-0.185375	0.228692	1.586250
C95	C	-0.308497	0.312514	1.712095
C96	C	-0.291431	0.377584	1.735154
C97	C	-0.151251	0.358830	1.632370
C98	C	-0.151230	0.753790	1.237397
C99	C	-0.291417	0.856603	1.256159
C100	C	-0.308527	0.833583	1.191109
C101	C	-0.185424	0.707738	1.107282
C102	C	-0.045230	0.604927	1.088515
C103	C	-0.301656	0.716091	1.697564
C104	C	-0.485126	0.837655	1.819135
C105	C	-0.576891	0.949909	1.828479
C106	C	-0.485166	0.940598	1.716243
C107	C	-0.301692	0.819036	1.594676
C108	C	1.423082	-0.323752	0.451969
C109	C	1.606582	-0.445316	0.330399
C110	C	1.698352	-0.557570	0.321055
C111	C	1.606621	-0.548259	0.433291
C112	C	1.423131	-0.426697	0.554858
C113	C	1.166632	0.182383	0.666065
C114	C	1.306843	0.163608	0.563277
C115	C	1.429970	0.079782	0.437431
C116	C	1.412897	0.014717	0.414373
C117	C	1.272698	0.033485	0.517159
C118	C	1.166617	-0.212559	1.061023
C119	C	1.306789	-0.315349	1.042283
C120	C	1.429911	-0.441200	0.958468
C121	C	1.412845	-0.464258	0.893398
C122	C	1.272665	-0.361468	0.912144
H123	H	0.021258	0.361683	1.067384
Br124	Br	0.887836	0.419287	0.932957
H125	H	-0.199246	0.175700	1.567450
Br126	Br	1.249545	-0.054814	0.485842
Br127	Br	-0.609730	1.092957	1.728946
H128	H	1.320712	0.216600	0.582076
H129	H	-0.227042	0.811475	1.503305
H130	H	1.029813	-0.007221	0.232155
Br131	Br	1.620232	0.054326	0.297949
Br132	Br	-0.458463	1.027378	1.369929
H133	H	0.098125	0.204394	0.910082
H134	H	1.258800	-0.380264	0.859150
Br135	Br	0.121874	0.096175	1.312688
Br136	Br	-0.018103	0.785068	1.325701
Br137	Br	1.579971	-0.635067	0.779640
H138	H	1.066384	-0.110093	1.129272
Br139	Br	1.298668	-0.414089	0.707153
H140	H	1.320662	-0.296550	1.095274
H141	H	1.544047	-0.524887	0.943214
Br142	Br	-0.018057	0.447093	0.663606
Br143	Br	1.298575	-0.171425	0.464615
Br144	Br	-0.413006	0.446147	1.321909
Br145	Br	1.731190	-0.700618	0.420588
Br146	Br	1.947379	-0.722540	0.156059
H147	H	1.681241	-0.452872	0.239027
Br148	Br	0.999559	0.296150	0.836843
Br149	Br	-0.013355	1.107124	1.323619
Br150	Br	-0.128137	0.447157	1.663692
H151	H	-0.422633	0.327774	1.795776
H152	H	-0.559787	0.845214	1.910508
Br153	Br	-0.498803	0.973130	1.216594
Br154	Br	-0.215342	0.449822	1.314519
Br155	Br	-0.177152	0.563764	1.684919
H156	H	-0.035726	0.237574	1.268104
Br157	Br	1.580009	-0.099039	0.243575
Br158	Br	-0.208670	0.676519	1.019010
H159	H	0.259457	0.203596	0.908987
Br160	Br	-0.235649	0.431296	1.104179
H161	H	0.273437	-0.005191	0.890484
Br162	Br	0.121797	0.434158	0.974760
H163	H	-0.726287	1.048885	1.927474
H164	H	0.312894	0.005177	1.037006
Br165	Br	0.143325	-0.029066	1.062578
H166	H	-0.184092	0.228588	1.262312
Br167	Br	1.139469	0.607302	0.823878
Br168	Br	0.532455	-0.046034	0.822831
H169	H	1.136565	0.433301	0.825132
Br170	Br	0.330053	0.296163	0.836813
Br171	Br	0.781047	0.100660	0.218145
Br172	Br	0.340360	1.052806	1.170283
H173	H	0.686397	0.502431	1.020282
H174	H	-0.015153	0.959057	1.324405
H175	H	0.257073	0.327809	0.795828
H176	H	-0.015146	0.445822	0.837604
Br177	Br	1.139522	-0.054803	0.485896
H178	H	-0.137323	0.772558	1.290372
Br179	Br	-0.458546	0.491343	1.905952
H180	H	1.136567	-0.053498	0.311908
