data_functionalizedCrystal
_audit_creation_method	'MofGen! by Chris Wilmer'
_symmetry_space_group_name_H-M	'P1'
_symmetry_Int_Tables_number	1
_symmetry_cell_setting	triclinic
loop_
_symmetry_equiv_pos_as_xyz
  x,y,z
_cell_length_a	15.944545
_cell_length_b	15.944551
_cell_length_c	15.455313
_cell_angle_alpha	92.664316
_cell_angle_beta	87.321378
_cell_angle_gamma	83.497455
loop_
_atom_site_label
_atom_site_type_symbol
_atom_site_fract_x
_atom_site_fract_y
_atom_site_fract_z
O1	O	1.118206	0.104636	-0.072076
O2	O	1.618206	0.604636	0.427924
O3	O	0.873657	0.117997	-0.072091
O4	O	1.373657	0.617997	0.427909
O5	O	1.002609	-0.010958	-0.072075
O6	O	1.502609	0.489042	0.427925
O7	O	0.989254	0.233591	-0.072092
O8	O	1.489254	0.733591	0.427908
O9	O	0.995235	-0.003614	0.072186
O10	O	1.495235	0.496386	0.572186
O11	O	0.866282	0.125341	0.072171
O12	O	1.366282	0.625341	0.572171
O13	O	1.110832	0.111980	0.072185
O14	O	1.610832	0.611980	0.572185
Cu15	Cu	0.987884	0.119331	0.085350
Cu16	Cu	1.487884	0.619331	0.585350
Cu17	Cu	0.996605	0.110646	-0.085256
Cu18	Cu	1.496605	0.610646	0.414744
O19	O	0.981880	0.240935	0.072170
O20	O	1.481880	0.740935	0.572170
C21	C	0.838676	0.121115	0.000038
C22	C	1.338676	0.621115	0.500038
C23	C	0.745429	0.119454	0.000033
C24	C	1.245429	0.619454	0.500033
C25	C	0.474796	0.034562	0.000048
C26	C	0.974796	0.534562	0.500048
C27	C	0.521742	0.079111	0.071176
C28	C	1.021742	0.579111	0.571176
C29	C	0.409785	0.113535	0.000048
C30	C	0.909785	0.613535	0.500048
C31	C	0.528993	0.071892	-0.071055
C32	C	1.028993	0.571892	0.428945
C33	C	0.574699	0.116439	0.000039
C34	C	1.074699	0.616439	0.500039
C35	C	0.455499	0.158066	0.071235
C36	C	0.955499	0.658066	0.571235
C37	C	0.462750	0.150832	-0.071059
C38	C	0.962750	0.650832	0.428941
C39	C	0.509662	0.195441	0.000086
C40	C	1.009662	0.695441	0.500086
C41	C	0.314782	0.111859	0.000054
C42	C	0.814782	0.611859	0.500054
C43	C	0.669698	0.118121	0.000040
C44	C	1.169698	0.618121	0.500040
C45	C	0.998367	-0.038580	0.000055
C46	C	1.498367	0.461420	0.500055
C47	C	0.996705	-0.131826	0.000056
C48	C	1.496705	0.368174	0.500056
C49	C	0.912801	-0.346682	0.000039
C50	C	1.412801	0.153318	0.500039
C51	C	0.948128	-0.404079	0.071171
C52	C	1.448128	0.095921	0.571171
C53	C	0.993698	-0.302552	0.000049
C54	C	1.493698	0.197448	0.500049
C55	C	0.955417	-0.411303	-0.071059
C56	C	1.455417	0.088697	0.428941
C57	C	0.990788	-0.467466	0.000039
C58	C	1.490788	0.032534	0.500039
C59	C	1.029044	-0.358718	0.071240
C60	C	1.529044	0.141282	0.571240
C61	C	1.036325	-0.365939	-0.071055
C62	C	1.536325	0.134061	0.428945
C63	C	1.071710	-0.423318	0.000095
C64	C	1.571710	0.076682	0.500095
C65	C	0.995372	-0.207550	0.000056
C66	C	1.495372	0.292450	0.500056
C67	C	0.989120	-0.562467	0.000038
C68	C	1.489120	-0.062467	0.500038
C69	C	1.145813	0.108861	0.000054
C70	C	1.645813	0.608861	0.500054
C71	C	1.239059	0.110522	0.000054
C72	C	1.739059	0.610522	0.500054
C73	C	0.986121	0.268557	0.000037
C74	C	1.486121	0.768557	0.500037
C75	C	0.987784	0.361802	0.000031
C76	C	1.487784	0.861802	0.500031
N77	N	0.981756	0.125439	0.205345
N78	N	1.481756	0.625439	0.705345
N79	N	1.002739	0.104531	-0.205250
N80	N	1.502739	0.604531	0.294750
C81	C	1.036559	0.070674	0.250745
C82	C	1.536559	0.570674	0.750745
C83	C	1.031933	0.075301	0.341553
C84	C	1.531933	0.575301	0.841553
C85	C	0.972507	0.134697	0.386958
C86	C	1.472507	0.634697	0.886958
C87	C	0.917699	0.189464	0.341551
C88	C	1.417699	0.689464	0.841551
C89	C	0.922322	0.184833	0.250745
C90	C	1.422322	0.684833	0.750745
C91	C	0.952553	0.154666	0.658537
C92	C	1.452553	0.654666	1.158537
C93	C	0.947936	0.159296	0.749349
C94	C	1.447936	0.659296	1.249349
C95	C	1.062170	0.045131	0.749345
C96	C	1.562170	0.545131	1.249345
C97	C	1.066791	0.040508	0.658537
C98	C	1.566791	0.540508	1.158537
C99	C	1.011979	0.095272	0.613138
C100	C	1.511979	0.595272	1.113138
N101	N	0.967779	0.139430	0.479777
N102	N	1.467779	0.639430	0.979777
N103	N	1.016704	0.090535	0.520320
N104	N	1.516704	0.590535	1.020320
H105	H	0.525152	0.263507	0.000123
H106	H	1.025152	0.763507	0.500123
H107	H	1.138915	-0.456476	0.000139
H108	H	1.638915	0.043524	0.500139
Br109	Br	1.147443	-0.040098	0.596915
Br110	Br	1.647443	0.459902	1.096915
Br111	Br	0.847938	0.259154	0.189130
Br112	Br	1.347938	0.759154	0.689130
H113	H	0.436878	0.181094	-0.131199
H114	H	0.936878	0.681094	0.368801
Br115	Br	1.117218	-0.009933	0.189134
Br116	Br	1.617218	0.490067	0.689134
H117	H	1.073586	-0.348871	-0.131190
H118	H	1.573586	0.151129	0.368810
H119	H	1.060154	-0.335664	0.131442
H120	H	1.560154	0.164336	0.631442
Br121	Br	0.885980	-0.432490	0.171398
Br122	Br	1.385980	0.067510	0.671398
Br123	Br	0.582317	0.011180	-0.171272
Br124	Br	1.082317	0.511180	0.328728
H125	H	0.547599	0.048820	0.131313
H126	H	1.047599	0.548820	0.631313
H127	H	0.423613	0.194458	0.131432
H128	H	0.923613	0.694458	0.631432
Br129	Br	0.903487	-0.449893	-0.171281
Br130	Br	1.403487	0.050107	0.328719
H131	H	1.076557	0.030707	0.378518
H132	H	1.576557	0.530707	0.878518
H133	H	0.899542	0.207667	0.786314
H134	H	1.399542	0.707667	1.286314
Br135	Br	0.448696	-0.078788	0.000165
Br136	Br	0.948696	0.421212	0.500165
Br137	Br	1.136551	-0.029189	0.810961
Br138	Br	1.636551	0.470811	1.310961
H139	H	0.907925	0.199259	0.621580
H140	H	1.407925	0.699259	1.121580
Br141	Br	0.800878	-0.291160	0.000142
Br142	Br	1.300878	0.208840	0.500142
Br143	Br	0.837042	0.270069	0.403168
Br144	Br	1.337042	0.770069	0.903168
