data_functionalizedCrystal
_audit_creation_method	'MofGen! by Chris Wilmer'
_symmetry_space_group_name_H-M	'P1'
_symmetry_Int_Tables_number	1
_symmetry_cell_setting	triclinic
loop_
_symmetry_equiv_pos_as_xyz
  x,y,z
_cell_length_a	18.215407
_cell_length_b	18.101395
_cell_length_c	18.215407
_cell_angle_alpha	90.010695
_cell_angle_beta	90.010236
_cell_angle_gamma	90.031552
loop_
_atom_site_label
_atom_site_type_symbol
_atom_site_fract_x
_atom_site_fract_y
_atom_site_fract_z
Zn1	Zn	1.124970	-0.294943	0.416123
Zn2	Zn	1.624970	0.205057	0.916123
Zn3	Zn	1.124886	-0.418756	0.293060
Zn4	Zn	1.624886	0.081244	0.793060
Zn5	Zn	1.001924	-0.294934	0.293071
Zn6	Zn	1.501924	0.205066	0.793071
Zn7	Zn	1.001855	-0.418749	0.416085
Zn8	Zn	1.501855	0.081251	0.916085
O9	O	1.063409	-0.356845	0.354585
O10	O	1.563409	0.143155	0.854585
O11	O	1.227943	-0.311374	0.399810
O12	O	1.727943	0.188626	0.899810
O13	O	1.108568	-0.402329	0.190078
O14	O	1.608568	0.097671	0.690078
O15	O	1.018310	-0.191302	0.309414
O16	O	1.518310	0.308698	0.809414
O17	O	1.227882	-0.402339	0.309397
O18	O	1.727882	0.097661	0.809397
O19	O	1.108712	-0.191309	0.399821
O20	O	1.608712	0.308691	0.899821
O21	O	1.018228	-0.311358	0.190085
O22	O	1.518228	0.188642	0.690085
O23	O	0.898930	-0.311351	0.309377
O24	O	1.398930	0.188649	0.809377
O25	O	1.018194	-0.402327	0.519075
O26	O	1.518194	0.097673	1.019075
O27	O	0.898880	-0.402317	0.399756
O28	O	1.398880	0.097683	0.899756
O29	O	1.108646	-0.311367	0.519103
O30	O	1.608646	0.188633	1.019103
O31	O	1.108502	-0.522388	0.309360
O32	O	1.608502	-0.022388	0.809360
O33	O	1.018112	-0.522382	0.399745
O34	O	1.518112	-0.022382	0.899745
C35	C	0.872203	-0.356833	0.354564
C36	C	1.372203	0.143167	0.854564
C37	C	0.790404	-0.356845	0.354572
C38	C	1.290404	0.143155	0.854572
C39	C	0.602203	-0.404286	0.401573
C40	C	1.102203	0.095714	0.901573
C41	C	0.525344	-0.404288	0.401582
C42	C	1.025344	0.095712	0.901582
C43	C	0.525367	-0.309418	0.307613
C44	C	1.025367	0.190582	0.807613
C45	C	0.602224	-0.309413	0.307608
C46	C	1.102224	0.190587	0.807608
C47	C	0.640640	-0.356851	0.354587
C48	C	1.140640	0.143149	0.854587
C49	C	0.486924	-0.356859	0.354601
C50	C	0.986924	0.143141	0.854601
C51	C	0.403590	-0.356861	0.354611
C52	C	0.903590	0.143139	0.854611
C53	C	0.723979	-0.356848	0.354579
C54	C	1.223979	0.143152	0.854579
C55	C	1.063310	-0.549256	0.354563
C56	C	1.563310	-0.049256	0.854563
C57	C	1.063336	-0.631570	0.354579
C58	C	1.563336	-0.131570	0.854579
C59	C	1.063497	-0.930661	0.354618
C60	C	1.563497	-0.430661	0.854618
C61	C	1.006758	-0.899363	0.411628
C62	C	1.506758	-0.399363	0.911628
C63	C	1.006488	-0.813745	0.411449
C64	C	1.506488	-0.313745	0.911449
C65	C	1.063417	-0.782278	0.354599
C66	C	1.563417	-0.282278	0.854599
C67	C	1.042432	-0.813407	0.277038
C68	C	1.542432	-0.313407	0.777038
C69	C	1.042066	-0.899053	0.277379
C70	C	1.542066	-0.399053	0.777379
C71	C	1.141345	-0.899010	0.374487
C72	C	1.641345	-0.399010	0.874487
C73	C	1.140887	-0.813359	0.376188
C74	C	1.640887	-0.313359	0.876188
C75	C	1.063373	-0.698419	0.354584
C76	C	1.563373	-0.198419	0.854584
C77	C	1.063539	-1.014520	0.354629
C78	C	1.563539	-0.514520	0.854629
C79	C	1.255362	-0.356859	0.354607
C80	C	1.755362	0.143141	0.854607
C81	C	1.337161	-0.356864	0.354616
C82	C	1.837161	0.143136	0.854616
C83	C	1.063422	-0.356847	0.546538
C84	C	1.563422	0.143153	1.046538
C85	C	1.063427	-0.356848	0.628337
C86	C	1.563427	0.143152	1.128337
C87	C	1.063528	-0.163683	0.354623
C88	C	1.563528	0.336317	0.854623
C89	C	1.063578	-0.081369	0.354639
C90	C	1.563578	0.418631	0.854639
C91	C	1.110511	-0.309493	0.816546
C92	C	1.610511	0.190507	1.316546
C93	C	1.110507	-0.309493	0.893405
C94	C	1.610507	0.190507	1.393405
C95	C	1.016319	-0.404214	0.893365
C96	C	1.516319	0.095786	1.393365
C97	C	1.016320	-0.404210	0.816507
C98	C	1.516320	0.095790	1.316507
C99	C	1.063420	-0.356851	0.778100
C100	C	1.563420	0.143149	1.278100
C101	C	1.063415	-0.356854	0.931816
C102	C	1.563415	0.143146	1.431816
C103	C	1.063410	-0.356854	1.015150
C104	C	1.563410	0.143146	1.515150
C105	C	1.063424	-0.356850	0.694761
C106	C	1.563424	0.143150	1.194761
C107	C	1.063397	-0.356859	1.163379
C108	C	1.563397	0.143141	1.663379
C109	C	1.063408	-0.356857	1.081580
C110	C	1.563408	0.143143	1.581580
H111	H	0.633521	-0.270781	0.269346
H112	H	1.133521	0.229219	0.769346
C113	C	0.483107	-0.257249	0.255932
C114	C	0.983107	0.242751	0.755932
H115	H	0.431828	-0.264052	0.262658
H116	H	0.931828	0.235948	0.762658
H117	H	0.495726	-0.207506	0.266782
H118	H	0.995726	0.292494	0.766782
H119	H	0.495688	-0.268019	0.206465
H120	H	0.995688	0.231981	0.706465
C121	C	1.162311	-0.257397	0.774297
C122	C	1.662311	0.242603	1.274297
H123	H	1.155574	-0.264181	0.723017
H124	H	1.655574	0.235819	1.223017
H125	H	1.151569	-0.207640	0.786903
H126	H	1.651569	0.292360	1.286903
H127	H	1.211754	-0.268242	0.786901
H128	H	1.711754	0.231758	1.286901
C129	C	0.644462	-0.456462	0.453247
C130	C	1.144462	0.043538	0.953247
H131	H	0.695741	-0.449673	0.446510
H132	H	1.195741	0.050327	0.946510
H133	H	0.631885	-0.445704	0.502714
H134	H	1.131885	0.054296	1.002714
H135	H	0.631836	-0.506206	0.442385
H136	H	1.131836	-0.006206	0.942385
C137	C	0.964523	-0.456310	0.774214
C138	C	1.464523	0.043690	1.274214
H139	H	0.936480	-0.484524	0.808094
H140	H	1.436480	0.015476	1.308094
H141	H	0.932475	-0.427981	0.744230
H142	H	1.432475	0.072019	1.244230
H143	H	0.992665	-0.488577	0.744232
H144	H	1.492665	0.011423	1.244232
C145	C	1.162313	-0.257410	0.935696
C146	C	1.662313	0.242590	1.435696
H147	H	1.155565	-0.264189	0.986971
H148	H	1.655565	0.235811	1.486971
H149	H	1.211751	-0.268256	0.923106
H150	H	1.711751	0.231744	1.423106
H151	H	1.151574	-0.207646	0.923111
H152	H	1.651574	0.292354	1.423111
C153	C	1.201021	-0.784423	0.324187
C154	C	1.701021	-0.284423	0.824187
H155	H	1.247199	-0.804075	0.338521
H156	H	1.747199	-0.304075	0.838521
H157	H	1.190276	-0.799313	0.275342
H158	H	1.690276	-0.299313	0.775342
H159	H	1.202691	-0.732023	0.326625
H160	H	1.702691	-0.232023	0.826625
H161	H	0.494052	-0.442913	0.439844
H162	H	0.994052	0.057087	0.939844
H163	H	1.019616	-0.792698	0.468960
H164	H	1.519616	-0.292698	0.968960
H165	H	1.183618	-0.919247	0.332965
H166	H	1.683618	-0.419247	0.832965
H167	H	1.019755	-0.919928	0.469325
H168	H	1.519755	-0.419928	0.969325
C169	C	0.929278	-0.928510	0.394072
C170	C	1.429278	-0.428510	0.894072
H171	H	0.931357	-0.959668	0.352148
H172	H	1.431357	-0.459668	0.852148
H173	H	0.911190	-0.955766	0.434799
H174	H	1.411190	-0.455766	0.934799
H175	H	0.897487	-0.888072	0.384421
H176	H	1.397487	-0.388072	0.884421
C177	C	0.928540	-0.786141	0.393670
C178	C	1.428540	-0.286141	0.893670
H179	H	0.928107	-0.733660	0.393507
H180	H	1.428107	-0.233660	0.893507
H181	H	0.914154	-0.803922	0.346752
H182	H	1.414154	-0.303922	0.846752
H183	H	0.895268	-0.803805	0.429793
H184	H	1.395268	-0.303805	0.929793
C185	C	0.965191	-0.926127	0.254650
C186	C	1.465191	-0.426127	0.754650
H187	H	0.934478	-0.884783	0.245299
H188	H	1.434478	-0.384783	0.745299
H189	H	0.968965	-0.955367	0.211507
H190	H	1.468965	-0.455367	0.711507
H191	H	0.944697	-0.954923	0.293135
H192	H	1.444697	-0.454923	0.793135
C193	C	1.095458	-0.927027	0.218032
C194	C	1.595458	-0.427027	0.718032
H195	H	1.117272	-0.886046	0.193818
H196	H	1.617272	-0.386046	0.693818
H197	H	1.132672	-0.956144	0.240312
H198	H	1.632672	-0.456144	0.740312
H199	H	1.069358	-0.956137	0.183341
H200	H	1.569358	-0.456137	0.683341
H201	H	1.160480	-0.920574	0.430081
H202	H	1.660480	-0.420574	0.930081
H203	H	0.986129	-0.792018	0.259906
H204	H	1.486129	-0.292018	0.759906
C205	C	1.162276	-0.785864	0.453292
C206	C	1.662276	-0.285864	0.953292
H207	H	1.124159	-0.755566	0.472252
H208	H	1.624159	-0.255566	0.972252
H209	H	1.169448	-0.827005	0.484851
H210	H	1.669448	-0.327005	0.984851
H211	H	1.206412	-0.758040	0.450336
H212	H	1.706412	-0.258040	0.950336
H213	H	1.082459	-0.793024	0.233404
H214	H	1.582459	-0.293024	0.733404
H215	H	0.977974	-0.442773	0.924645
H216	H	1.477974	0.057227	1.424645
