data_functionalizedCrystal
_audit_creation_method	'MofGen! by Chris Wilmer'
_symmetry_space_group_name_H-M	'P1'
_symmetry_Int_Tables_number	1
_symmetry_cell_setting	triclinic
loop_
_symmetry_equiv_pos_as_xyz
  x,y,z
_cell_length_a	15.698487
_cell_length_b	20.016444
_cell_length_c	20.016444
_cell_angle_alpha	90.003392
_cell_angle_beta	59.999443
_cell_angle_gamma	60.003646
loop_
_atom_site_label
_atom_site_type_symbol
_atom_site_fract_x
_atom_site_fract_y
_atom_site_fract_z
Zr1	Zr	0.932364	-0.087622	0.643606
O2	O	1.110073	-0.194297	0.536928
O3	O	0.754654	-0.054923	0.676308
O4	O	0.932356	-0.194293	0.676307
O5	O	0.932377	0.055013	0.536930
O6	O	0.932351	-0.194288	0.786252
O7	O	0.932370	-0.054927	0.536929
O8	O	0.614474	0.055020	0.786253
O9	O	1.250254	-0.194294	0.536928
O10	O	0.827745	-0.040971	0.772305
O11	O	0.827754	0.041072	0.690255
O12	O	1.036975	-0.123018	0.690255
O13	O	1.036984	-0.040975	0.608205
Zr14	Zr	0.932367	0.087728	0.818955
Zr15	Zr	0.932356	-0.087614	0.818954
Zr16	Zr	0.932374	0.087719	0.643606
Zr17	Zr	1.155937	-0.087618	0.643605
Zr18	Zr	0.708794	0.087724	0.818955
O19	O	1.110077	0.055028	0.786253
O20	O	1.110062	-0.194285	0.786252
O21	O	1.110088	0.055016	0.536929
O22	O	0.754658	0.194402	0.925632
O23	O	0.754642	-0.054911	0.925631
O24	O	0.754669	0.194390	0.676309
O25	O	0.932353	-0.054908	0.925631
O26	O	0.932374	0.194398	0.786253
O27	O	0.932379	0.194393	0.676309
O28	O	0.932360	0.055032	0.925632
O29	O	1.250248	-0.194287	0.676307
O30	O	0.614483	0.194393	0.786254
O31	O	0.614476	0.194399	0.925632
O32	O	0.614468	0.055026	0.925632
O33	O	1.250262	-0.054921	0.536929
O34	O	1.250256	-0.054914	0.676308
O35	O	0.827755	0.123123	0.772306
O36	O	0.827746	0.041080	0.854356
O37	O	1.036977	-0.040967	0.772305
O38	O	1.036985	0.041076	0.690255
C39	C	0.652709	0.000048	0.731281
C40	C	0.557797	0.000046	0.731281
C41	C	0.932375	0.000042	0.511946
C42	C	0.932378	0.000038	0.437506
C43	C	0.932378	0.219378	0.731281
C44	C	0.932383	0.293815	0.731281
C45	C	0.384014	0.000060	0.731279
C46	C	0.480719	0.000054	0.731278
C47	C	1.212021	0.000058	0.731280
C48	C	1.306933	0.000059	0.731280
C49	C	0.932352	-0.219273	0.731280
C50	C	0.932347	-0.293710	0.731279
C51	C	1.041585	0.422254	0.688449
C52	C	1.041580	0.492199	0.688446
C53	C	0.823137	0.577849	0.774113
C54	C	0.823143	0.507905	0.774111
C55	C	0.932371	0.430108	0.731280
C56	C	0.932359	0.569997	0.731280
C57	C	0.932353	0.645835	0.731278
C58	C	0.932378	0.354265	0.731281
C59	C	0.932360	-0.060517	0.266250
C60	C	0.932353	-0.060511	0.196310
C61	C	0.932366	0.060628	0.196317
C62	C	0.932365	0.060625	0.266260
C63	C	0.932368	0.000048	0.301222
C64	C	0.932362	0.000057	0.161339
C65	C	0.932354	0.000063	0.085507
C66	C	0.932374	0.000042	0.377060
C67	C	0.932355	0.000063	0.950615
C68	C	0.932352	0.000067	1.025055
C69	C	0.652700	0.000058	0.950615
C70	C	0.557784	0.000060	1.025055
C71	C	0.652723	0.219373	0.731281
C72	C	0.557815	0.293808	0.731282
C73	C	0.652713	0.219384	0.950616
C74	C	0.557802	0.293823	1.025056
C75	C	1.212017	-0.219279	0.511945
C76	C	1.306929	-0.293718	0.437504
C77	C	1.212031	0.000047	0.511946
C78	C	1.306947	0.000045	0.437505
C79	C	1.212007	-0.219268	0.731279
C80	C	1.306916	-0.293703	0.731279
C81	C	0.513209	-0.042776	1.017184
C82	C	0.424038	-0.042790	1.087121
C83	C	0.379437	0.000036	1.164930
C84	C	0.424020	0.042874	1.172800
C85	C	0.513195	0.042883	1.102863
C86	C	0.513246	0.371601	0.774112
C87	C	0.424082	0.441548	0.774109
C88	C	0.379483	0.433700	0.731281
C89	C	0.424061	0.355899	0.688446
C90	C	0.513229	0.285954	0.688444
C91	C	0.513226	0.285954	1.102851
C92	C	0.424059	0.355891	1.172802
C93	C	0.379463	0.433695	1.164957
C94	C	0.424048	0.441562	1.087155
C95	C	0.513219	0.371626	1.017205
C96	C	1.351515	-0.285849	0.359710
C97	C	1.440710	-0.355786	0.289758
C98	C	1.485310	-0.433590	0.297603
C99	C	1.440720	-0.441457	0.375406
C100	C	1.351533	-0.371521	0.445356
C101	C	1.351530	0.042874	0.445377
C102	C	1.440726	0.042869	0.375439
C103	C	1.485331	0.000040	0.297631
C104	C	1.440743	-0.042795	0.289761
C105	C	1.351555	-0.042794	0.359698
C106	C	1.351486	-0.285829	0.774115
C107	C	1.440651	-0.355762	0.774131
C108	C	1.485249	-0.433569	0.731305
C109	C	1.440669	-0.441441	0.688467
C110	C	1.351500	-0.371509	0.688457
H111	H	1.130513	0.485798	0.653567
C112	C	0.432979	0.519239	0.995485
C113	C	0.375027	0.527088	1.078539
H114	H	0.402716	0.572041	0.990170
H115	H	0.418350	0.490187	0.969984
H116	H	0.517175	0.490175	0.969979
H117	H	0.290831	0.556147	1.104044
H118	H	0.389646	0.556152	1.104050
H119	H	0.549502	0.378044	0.953864
H120	H	1.315231	-0.377937	0.508698
H121	H	1.130525	0.358911	0.653571
H122	H	0.734202	0.514306	0.808989
H123	H	0.549522	0.222609	1.109254
C124	C	0.829341	-0.090394	0.158055
C125	C	0.932344	-0.127087	0.157870
H126	H	0.829332	-0.131498	0.134329
H127	H	0.829351	-0.054330	0.127218
H128	H	0.759482	-0.060481	0.212746
H129	H	1.002203	-0.156996	0.103178
H130	H	0.932345	-0.163165	0.188706
H131	H	0.734207	0.641199	0.808986
H132	H	1.557931	-0.490530	0.240639
C133	C	0.932329	-0.180249	0.259221
C134	C	0.932346	-0.127094	0.304688
H135	H	0.932309	-0.221347	0.282956
H136	H	1.002197	-0.205130	0.204545
H137	H	0.862456	-0.150318	0.259342
H138	H	1.002224	-0.157024	0.304563
H139	H	0.862471	-0.102212	0.359379
H140	H	0.932368	0.109948	0.294737
C141	C	1.577397	-0.586681	0.650441
C142	C	1.489711	-0.526971	0.641385
H143	H	1.607684	-0.639483	0.621366
H144	H	1.542589	-0.580539	0.706784
H145	H	1.641397	-0.580521	0.629300
H146	H	1.425707	-0.533127	0.662532
H147	H	1.524519	-0.533116	0.585031
H148	H	0.387767	0.349471	1.236147
H149	H	0.387750	-0.077674	1.080697
H150	H	0.932366	0.109947	0.167843
H151	H	1.557856	-0.490506	0.731320
C152	C	0.649915	-0.080813	0.871925
C153	C	0.562228	-0.089859	0.931661
H154	H	0.680169	-0.109881	0.819129
H155	H	0.713925	-0.101956	0.878061
H156	H	0.615110	-0.024465	0.878065
H157	H	0.597035	-0.146206	0.925524
H158	H	0.498207	-0.068719	0.925521
H159	H	0.306823	0.000023	1.221871
C160	C	1.685933	-0.080389	0.174133
C161	C	1.583373	0.000045	0.220763
H162	H	1.746461	-0.080381	0.126684
H163	H	1.665771	-0.112020	0.158298
H164	H	1.715132	-0.103311	0.205791
H165	H	1.554168	0.022964	0.189107
H166	H	1.603535	0.031687	0.236597
C167	C	0.287283	0.080900	1.318046
C168	C	0.374975	0.089955	1.258332
H169	H	0.256995	0.109975	1.370851
H170	H	0.322086	0.024560	1.311905
H171	H	0.223285	0.102040	1.311888
H172	H	0.438977	0.068810	1.264487
H173	H	0.340172	0.146308	1.264476
H174	H	0.549505	0.222614	0.653570
C175	C	1.431566	-0.519133	0.467076
C176	C	1.489595	-0.526983	0.384022
H177	H	1.461699	-0.571936	0.472391
H178	H	1.347373	-0.489979	0.492565
H179	H	1.446290	-0.490172	0.492594
H180	H	1.474863	-0.555939	0.358505
H181	H	1.573808	-0.556150	0.358522
C182	C	1.214812	0.080920	0.590636
C183	C	1.302516	0.089953	0.530900
H184	H	1.184558	0.109989	0.643431
H185	H	1.249594	0.024582	0.584499
H186	H	1.150795	0.102078	0.584496
H187	H	1.366538	0.068790	0.537036
H188	H	1.267735	0.146303	0.537040
H189	H	0.549476	0.077770	1.109284
H190	H	0.549548	0.378007	0.808988
H191	H	0.387797	0.504889	0.808993
C192	C	1.360519	-0.463237	0.603767
C193	C	1.302529	-0.380173	0.641355
H194	H	1.330293	-0.468588	0.574682
H195	H	1.345880	-0.488723	0.644300
H196	H	1.444714	-0.488728	0.566814
H197	H	1.218334	-0.354683	0.678312
H198	H	1.317158	-0.354676	0.600816
H199	H	1.476938	-0.349336	0.809013
H200	H	0.306876	0.490660	0.731288
H201	H	1.477014	0.077753	0.381863
H202	H	1.315258	-0.077668	0.353277
H203	H	0.387735	0.349521	0.653576
C204	C	1.431808	-0.127458	0.212076
C205	C	1.489769	-0.089862	0.204229
H206	H	1.462077	-0.156515	0.159270
H207	H	1.347625	-0.086934	0.241138
H208	H	1.446432	-0.164435	0.241130
H209	H	1.475137	-0.052881	0.175180
H210	H	1.573972	-0.130391	0.175154
C211	C	1.360518	-0.208212	0.268010
C212	C	1.302520	-0.200332	0.351071
H213	H	1.330285	-0.155418	0.262674
H214	H	1.345894	-0.237265	0.242507
H215	H	1.444711	-0.237286	0.242521
H216	H	1.218328	-0.171263	0.376559
H217	H	1.317135	-0.171266	0.376585
H218	H	1.315188	-0.222481	0.808990
H219	H	0.306854	0.490635	1.221922
H220	H	1.477000	-0.349365	0.226415
