data_functionalizedCrystal
_audit_creation_method	'MofGen! by Chris Wilmer'
_symmetry_space_group_name_H-M	'P1'
_symmetry_Int_Tables_number	1
_symmetry_cell_setting	triclinic
loop_
_symmetry_equiv_pos_as_xyz
  x,y,z
_cell_length_a	6.817900
_cell_length_b	19.452420
_cell_length_c	19.453114
_cell_angle_alpha	96.328802
_cell_angle_beta	101.709288
_cell_angle_gamma	101.696715
loop_
_atom_site_label
_atom_site_type_symbol
_atom_site_fract_x
_atom_site_fract_y
_atom_site_fract_z
V1	V	-3.997947	-0.097915	-0.219345
O2	O	-3.995100	0.003953	-0.214816
O3	O	-3.940917	-0.193426	-0.218185
O4	O	-3.940968	-0.096739	-0.314854
O5	O	-3.995048	-0.093403	-0.117478
V6	V	-4.483804	-0.085692	-0.207120
O7	O	-4.254084	-0.124729	-0.246163
O8	O	-4.677865	-0.058878	-0.180302
O9	O	-4.317628	0.009819	-0.208280
O10	O	-4.604048	-0.187560	-0.211649
O11	O	-4.604099	-0.090204	-0.308987
O12	O	-4.317576	-0.086868	-0.111611
C13	C	-3.784096	-0.216699	-0.214813
C14	C	-3.818697	-0.294782	-0.214501
C15	C	-3.801490	-0.321196	-0.149986
C16	C	-3.834075	-0.394562	-0.149672
C17	C	-3.883827	-0.441511	-0.213874
C18	C	-3.901045	-0.415090	-0.278397
C19	C	-3.868480	-0.341726	-0.278711
N20	N	-3.846563	-0.562110	-0.259091
N21	N	-3.877492	-0.631802	-0.258789
C22	C	-3.981949	-0.662553	-0.212935
N23	N	-4.054279	-0.620977	-0.167383
N24	N	-4.023337	-0.551278	-0.167682
C25	C	-3.919143	-0.521063	-0.213542
C26	C	-4.000075	-0.768518	-0.148075
C27	C	-4.032674	-0.841885	-0.147764
C28	C	-4.099624	-0.862412	-0.276491
C29	C	-4.067045	-0.789046	-0.276801
C30	C	-4.017262	-0.742102	-0.212591
C31	C	-3.784160	-0.093365	-0.338123
C32	C	-3.818800	-0.093035	-0.416204
C33	C	-4.016538	-0.096406	-0.456473
C34	C	-4.049086	-0.096097	-0.529838
C35	C	-3.883893	-0.092431	-0.562934
C36	C	-3.686126	-0.089055	-0.522655
C37	C	-3.653579	-0.089358	-0.449290
N38	N	-3.820798	-0.129525	-0.681855
N39	N	-3.851729	-0.129240	-0.751549
C40	C	-3.981942	-0.091517	-0.783979
N41	N	-4.080090	-0.054101	-0.744084
N42	N	-4.049164	-0.054390	-0.674384
C43	C	-3.919164	-0.092102	-0.642486
C44	C	-4.214984	-0.094552	-0.903800
C45	C	-4.247523	-0.094238	-0.977166
C46	C	-3.884560	-0.087203	-0.969983
C47	C	-3.852023	-0.087510	-0.896617
C48	C	-4.017244	-0.091188	-0.863531
C49	C	-4.137790	0.033088	-0.211650
C50	C	-4.082427	0.111171	-0.211967
C51	C	-4.137726	-0.090245	-0.088339
C52	C	-4.082325	-0.090570	-0.010257
H53	H	-4.151076	-0.099398	-0.429538
O54	O	-3.949094	-0.460617	-0.340805
C55	C	-3.843779	-0.497244	-0.447369
C56	C	-3.789114	-0.445631	-0.376719
H57	H	-3.714448	-0.485156	-0.476419
H58	H	-3.993128	-0.490613	-0.481915
H59	H	-3.864182	-0.554213	-0.436049
H60	H	-3.768603	-0.388641	-0.387973
H61	H	-3.639815	-0.452324	-0.342195
H62	H	-3.691009	-0.084773	-0.863830
O63	O	-3.951388	-0.722881	-0.085715
C64	C	-3.703370	-0.624724	-0.008027
C65	C	-3.758222	-0.676368	-0.078662
H66	H	-3.547214	-0.587096	-0.002309
H67	H	-3.696538	-0.656174	0.038166
H68	H	-3.825845	-0.592636	-0.007668
H69	H	-3.635808	-0.708468	-0.079091
H70	H	-3.765124	-0.644876	-0.124824
H71	H	-3.882500	-0.320222	-0.331248
O72	O	-4.015792	-0.867425	-0.085026
C73	C	-3.946032	-0.839322	0.042617
C74	C	-3.965039	-0.810301	-0.028382
H75	H	-3.905039	-0.793153	0.088431
H76	H	-3.820232	-0.870392	0.048727
H77	H	-4.098916	-0.875917	0.043247
H78	H	-3.812257	-0.773678	-0.029062
H79	H	-4.090935	-0.779272	-0.034464
O80	O	-4.147885	-0.908106	-0.338793
C81	C	-4.227875	-1.030228	-0.395364
C82	C	-4.173167	-0.978553	-0.324753
H83	H	-4.248374	-1.087196	-0.384039
H84	H	-4.098666	-1.018181	-0.424475
H85	H	-4.377242	-1.023558	-0.429862
H86	H	-4.023855	-0.985194	-0.290200
H87	H	-4.302498	-0.990613	-0.295698
H88	H	-3.820059	-0.416072	-0.097135
O89	O	-4.375460	-0.098240	-0.871640
C90	C	-4.581059	-0.163809	-0.802685
C91	C	-4.399309	-0.159730	-0.839088
H92	H	-4.600373	-0.213511	-0.776345
H93	H	-4.728074	-0.166206	-0.844047
H94	H	-4.549189	-0.114694	-0.760669
H95	H	-4.430980	-0.208833	-0.881099
H96	H	-4.252353	-0.157298	-0.797683
O97	O	-4.083725	-0.763500	-0.339532
C98	C	-4.153683	-0.791606	-0.467178
C99	C	-4.134801	-0.820629	-0.396182
H100	H	-4.195022	-0.837781	-0.512999
H101	H	-4.000795	-0.755059	-0.467889
H102	H	-4.279361	-0.760485	-0.473205
H103	H	-4.009209	-0.851783	-0.390110
H104	H	-4.287777	-0.857139	-0.395503
H105	H	-4.210115	-0.098846	-0.562632
H106	H	-3.551625	-0.086068	-0.549606
H107	H	-3.492552	-0.086607	-0.416502
O108	O	-4.439720	-0.097636	-1.016274
C109	C	-4.791696	-0.164706	-1.054571
C110	C	-4.574120	-0.160957	-1.010268
H111	H	-4.900428	-0.215890	-1.049719
H112	H	-4.786733	-0.163901	-1.112709
H113	H	-4.849029	-0.117068	-1.034043
H114	H	-4.516656	-0.208585	-1.030734
H115	H	-4.579209	-0.161728	-0.952137
H116	H	-3.760969	-0.282979	-0.097702
O117	O	-3.724195	-0.083547	-1.002186
C118	C	-3.518432	-0.017927	-1.071062
C119	C	-3.700128	-0.021993	-1.034634
H120	H	-3.498888	0.031844	-1.097292
H121	H	-3.550232	-0.066984	-1.113145
H122	H	-3.371555	-0.015608	-1.029666
H123	H	-3.847082	-0.024290	-1.075977
H124	H	-3.668150	0.027063	-0.992537
