data_functionalizedCrystal
_audit_creation_method	'MofGen! by Chris Wilmer'
_symmetry_space_group_name_H-M	'P1'
_symmetry_Int_Tables_number	1
_symmetry_cell_setting	triclinic
loop_
_symmetry_equiv_pos_as_xyz
  x,y,z
_cell_length_a	16.992695
_cell_length_b	14.971486
_cell_length_c	13.448316
_cell_angle_alpha	89.999879
_cell_angle_beta	89.996140
_cell_angle_gamma	87.141176
loop_
_atom_site_label
_atom_site_type_symbol
_atom_site_fract_x
_atom_site_fract_y
_atom_site_fract_z
O1	O	0.102187	1.194125	-0.082578
O2	O	0.435520	1.527459	0.250755
O3	O	0.768853	1.860792	0.584089
O4	O	0.114424	0.934585	-0.082605
O5	O	0.447757	1.267918	0.250728
O6	O	0.781091	1.601252	0.584062
O7	O	-0.005838	1.063315	-0.082584
O8	O	0.327495	1.396648	0.250750
O9	O	0.660828	1.729981	0.584083
O10	O	0.222449	1.065396	-0.082599
O11	O	0.555782	1.398729	0.250734
O12	O	0.889116	1.732062	0.584067
O13	O	-0.005839	1.063301	0.082800
O14	O	0.327494	1.396634	0.416133
O15	O	0.660827	1.729968	0.749467
O16	O	0.114423	0.934571	0.082779
O17	O	0.447756	1.267905	0.416112
O18	O	0.781090	1.601238	0.749445
O19	O	0.102186	1.194112	0.082806
O20	O	0.435519	1.527445	0.416139
O21	O	0.768852	1.860778	0.749473
Cu22	Cu	0.108304	1.064340	0.097893
Cu23	Cu	0.441638	1.397673	0.431226
Cu24	Cu	0.774971	1.731007	0.764560
Cu25	Cu	0.108305	1.064356	-0.097692
Cu26	Cu	0.441639	1.397690	0.235641
Cu27	Cu	0.774972	1.731023	0.568974
O28	O	0.222448	1.065382	0.082785
O29	O	0.555781	1.398715	0.416118
O30	O	0.889115	1.732049	0.749451
C31	C	0.113876	0.901215	0.000083
C32	C	0.447210	1.234548	0.333417
C33	C	0.780543	1.567882	0.666750
C34	C	0.112236	0.801803	0.000073
C35	C	0.445570	1.135136	0.333407
C36	C	0.778903	1.468469	0.666740
C37	C	-0.035054	1.060631	0.000108
C38	C	0.298279	1.393964	0.333441
C39	C	0.631613	1.727298	0.666774
C40	C	-0.122105	1.052644	0.000107
C41	C	0.211228	1.385977	0.333440
C42	C	0.544561	1.719311	0.666773
C43	C	0.182887	0.749541	0.000070
C44	C	0.516220	1.082875	0.333403
C45	C	0.849554	1.416208	0.666736
C46	C	0.181341	0.656133	0.000085
C47	C	0.514675	0.989467	0.333418
C48	C	0.848008	1.322800	0.666751
C49	C	0.109144	0.614988	0.000096
C50	C	0.442477	0.948322	0.333429
C51	C	0.775811	1.281655	0.666763
C52	C	0.038488	0.667257	0.000102
C53	C	0.371821	1.000590	0.333436
C54	C	0.705154	1.333923	0.666769
C55	C	0.040034	0.760663	0.000095
C56	C	0.373368	1.093996	0.333428
C57	C	0.706701	1.427330	0.666761
C58	C	0.035269	0.472568	0.000116
C59	C	0.368603	0.805901	0.333450
C60	C	0.701936	1.139235	0.666783
C61	C	0.033723	0.379155	0.000122
C62	C	0.367056	0.712489	0.333456
C63	C	0.700389	1.045822	0.666789
C64	C	0.176577	0.368038	0.000106
C65	C	0.509910	0.701372	0.333440
C66	C	0.843243	1.034705	0.666773
C67	C	0.178123	0.461445	0.000099
C68	C	0.511456	0.794778	0.333432
C69	C	0.844790	1.128111	0.666765
C70	C	0.107466	0.513707	0.000103
C71	C	0.440800	0.847040	0.333437
C72	C	0.774133	1.180373	0.666770
C73	C	-0.172274	1.129708	0.000116
C74	C	0.161060	1.463042	0.333449
C75	C	0.494393	1.796375	0.666782
C76	C	-0.254067	1.122198	0.000106
C77	C	0.079266	1.455532	0.333439
C78	C	0.412599	1.788865	0.666772
C79	C	-0.285691	1.037623	0.000093
C80	C	0.047642	1.370956	0.333427
C81	C	0.380975	1.704290	0.666760
C82	C	-0.235517	0.960553	0.000081
C83	C	0.097817	1.293886	0.333415
C84	C	0.431150	1.627220	0.666748
C85	C	-0.153724	0.968064	0.000084
C86	C	0.179609	1.301397	0.333418
C87	C	0.512942	1.634730	0.666751
C88	C	-0.529318	1.006493	0.000076
C89	C	-0.195985	1.339827	0.333410
C90	C	0.137349	1.673160	0.666743
C91	C	-0.611117	0.998988	0.000076
C92	C	-0.277783	1.332322	0.333410
C93	C	0.055550	1.665655	0.666743
C94	C	-0.629662	1.160634	0.000099
C95	C	-0.296328	1.493968	0.333432
C96	C	0.037005	1.827301	0.666765
C97	C	-0.547867	1.168138	0.000108
C98	C	-0.214534	1.501471	0.333441
C99	C	0.118799	1.834805	0.666774
C100	C	-0.497700	1.091068	0.000090
C101	C	-0.164367	1.424401	0.333424
C102	C	0.168967	1.757734	0.666757
N103	N	-0.369297	1.029945	0.000086
N104	N	-0.035964	1.363278	0.333419
N105	N	0.297369	1.696611	0.666753
N106	N	-0.414095	1.098747	0.000091
N107	N	-0.080762	1.432080	0.333424
N108	N	0.252571	1.765414	0.666757
C109	C	0.251664	1.068066	0.000091
C110	C	0.584997	1.401399	0.333424
C111	C	0.918330	1.734732	0.666757
C112	C	0.338715	1.076053	0.000085
C113	C	0.672049	1.409386	0.333419
C114	C	1.005382	1.742719	0.666752
C115	C	0.102733	1.227482	0.000115
C116	C	0.436067	1.560815	0.333449
C117	C	0.769400	1.894148	0.666782
C118	C	0.104373	1.326894	0.000119
C119	C	0.437707	1.660227	0.333452
C120	C	0.771040	1.993561	0.666786
N121	N	0.108303	1.064335	0.235457
N122	N	0.441636	1.397669	0.568791
N123	N	0.774970	1.731002	0.902124
N124	N	0.108301	1.064368	-0.235257
N125	N	0.441634	1.397701	0.098077
N126	N	0.774967	1.731035	0.431410
C127	C	0.155943	1.121985	0.287496
C128	C	0.489276	1.455318	0.620829
C129	C	0.822609	1.788651	0.954163
C130	C	0.155939	1.121996	0.391599
C131	C	0.489272	1.455329	0.724933
C132	C	0.822606	1.788662	1.058266
C133	C	0.108300	1.064352	0.443662
C134	C	0.441633	1.397685	0.776995
C135	C	0.774966	1.731018	1.110329
C136	C	0.060655	1.006700	0.391616
C137	C	0.393988	1.340033	0.724949
C138	C	0.727321	1.673366	1.058283
C139	C	0.060654	1.006694	0.287515
C140	C	0.393988	1.340027	0.620848
C141	C	0.727321	1.673361	0.954181
C142	C	0.060660	1.006714	0.608596
C143	C	0.393993	1.340048	0.941930
C144	C	0.727326	1.673381	1.275263
C145	C	0.060661	1.006719	0.712705
C146	C	0.393994	1.340052	1.046038
C147	C	0.727328	1.673385	1.379371
C148	C	0.155945	1.122016	0.712681
C149	C	0.489278	1.455349	1.046014
C150	C	0.822611	1.788682	1.379347
C151	C	0.155944	1.122010	0.608579
C152	C	0.489278	1.455343	0.941913
C153	C	0.822611	1.788677	1.275246
C154	C	0.108300	1.064357	0.556541
C155	C	0.441634	1.397690	0.889874
C156	C	0.774967	1.731023	1.223207
H157	H	0.241679	0.783034	0.000060
H158	H	0.575012	1.116368	0.333393
H159	H	0.908345	1.449701	0.666727
Cl160	Cl	-0.692733	1.257516	0.000117
Cl161	Cl	-0.359400	1.590849	0.333451
Cl162	Cl	-0.026067	1.924183	0.666784
H163	H	-0.294912	1.184952	0.000115
H164	H	0.038422	1.518286	0.333448
H165	H	0.371755	1.851619	0.666782
Cl166	Cl	0.215834	1.194471	0.457015
Cl167	Cl	0.549167	1.527804	0.790348
Cl168	Cl	0.882500	1.861138	1.123682
H169	H	-0.020297	0.633749	0.000126
H170	H	0.313037	0.967082	0.333459
H171	H	0.646370	1.300416	0.666792
Cl172	Cl	-0.090655	0.871178	0.000069
Cl173	Cl	0.242678	1.204512	0.333403
Cl174	Cl	0.576012	1.537845	0.666736
Cl175	Cl	-0.132527	1.236037	0.000141
Cl176	Cl	0.200807	1.569370	0.333475
Cl177	Cl	0.534140	1.902703	0.666808
H178	H	0.194742	1.168956	0.755056
H179	H	0.528075	1.502289	1.088389
H180	H	0.861408	1.835623	1.421722
H181	H	0.021862	0.959769	0.434014
H182	H	0.355195	1.293103	0.767347
H183	H	0.688528	1.626436	1.100681
Cl184	Cl	0.270164	0.590437	0.000074
Cl185	Cl	0.603497	0.923770	0.333408
Cl186	Cl	0.936831	1.257104	0.666741
H187	H	0.021861	0.959750	0.245146
H188	H	0.355195	1.293083	0.578480
H189	H	0.688528	1.626416	0.911813
H190	H	0.021870	0.959779	0.755091
H191	H	0.355203	1.293112	1.088425
H192	H	0.688536	1.626445	1.421758
Cl193	Cl	-0.650870	0.892657	0.000067
Cl194	Cl	-0.317537	1.225991	0.333400
Cl195	Cl	0.015796	1.559324	0.666734
Cl196	Cl	0.215853	1.194458	0.543130
Cl197	Cl	0.549187	1.527791	0.876463
Cl198	Cl	0.882520	1.861125	1.209797
H199	H	-0.025067	0.345658	0.000133
H200	H	0.308267	0.678991	0.333466
H201	H	0.641600	1.012325	0.666799
Cl202	Cl	0.000751	0.934248	0.543178
Cl203	Cl	0.334084	1.267581	0.876511
Cl204	Cl	0.667417	1.600914	1.209844
Cl205	Cl	0.268887	0.513169	0.000074
Cl206	Cl	0.602220	0.846502	0.333407
Cl207	Cl	0.935553	1.179835	0.666740
H208	H	-0.022267	0.515117	0.000121
H209	H	0.311066	0.848451	0.333455
H210	H	0.644400	1.181784	0.666788
H211	H	-0.261271	0.891690	0.000065
H212	H	0.072062	1.225023	0.333398
H213	H	0.405396	1.558356	0.666732
Cl214	Cl	-0.508118	1.274465	0.000091
Cl215	Cl	-0.174785	1.607799	0.333424
Cl216	Cl	0.158549	1.941132	0.666758
Cl217	Cl	-0.466261	0.909604	0.000052
Cl218	Cl	-0.132928	1.242937	0.333385
Cl219	Cl	0.200406	1.576271	0.666719
H220	H	-0.017497	0.803213	0.000097
H221	H	0.315836	1.136547	0.333430
H222	H	0.649170	1.469880	0.666763
Cl223	Cl	0.215837	1.194455	0.222056
Cl224	Cl	0.549170	1.527788	0.555389
Cl225	Cl	0.882504	1.861121	0.888723
H226	H	0.234108	0.325482	0.000107
H227	H	0.567441	0.658815	0.333441
H228	H	0.900774	0.992149	0.666774
