data_functionalizedCrystal
_audit_creation_method	'MofGen! by Chris Wilmer'
_symmetry_space_group_name_H-M	'P1'
_symmetry_Int_Tables_number	1
_symmetry_cell_setting	triclinic
loop_
_symmetry_equiv_pos_as_xyz
  x,y,z
_cell_length_a	11.026607
_cell_length_b	15.995350
_cell_length_c	9.482900
_cell_angle_alpha	99.336743
_cell_angle_beta	78.636152
_cell_angle_gamma	96.039196
loop_
_atom_site_label
_atom_site_type_symbol
_atom_site_fract_x
_atom_site_fract_y
_atom_site_fract_z
O1	O	1.629075	0.340363	-0.120882
O2	O	1.275769	0.300437	-0.120885
O3	O	1.462080	0.199968	-0.120882
O4	O	1.442765	0.440832	-0.120885
O5	O	1.424236	0.220481	0.120910
O6	O	1.237926	0.320950	0.120907
O7	O	1.591231	0.360875	0.120910
Cu8	Cu	1.411123	0.342785	0.142986
Cu9	Cu	1.455878	0.318527	-0.142961
O10	O	1.404921	0.461344	0.120907
C11	C	1.211637	0.303328	0.000010
C12	C	1.076923	0.281371	0.000009
C13	C	1.442360	0.178909	0.000011
C14	C	1.439967	0.085597	0.000003
C15	C	1.003118	0.341997	0.000007
C16	C	0.863884	0.319305	0.000005
C17	C	1.431369	-0.253446	0.000008
C18	C	1.298767	-0.226057	-0.000536
C19	C	1.301076	-0.128960	0.000009
C20	C	1.435634	-0.085243	0.000005
C21	C	1.479470	-0.104742	0.138078
C22	C	1.476118	-0.201871	0.138193
C23	C	1.521895	-0.225142	-0.136769
C24	C	1.522149	-0.128356	-0.138594
C25	C	1.438051	0.009819	0.000008
C26	C	1.428954	-0.348507	0.000014
C27	C	1.655364	0.357984	0.000012
C28	C	1.790080	0.379940	0.000004
C29	C	1.424641	0.482403	0.000011
C30	C	1.427036	0.575714	0.000009
N31	N	1.379654	0.359848	0.344106
N32	N	1.487357	0.301459	-0.344081
C33	C	1.446587	0.323554	0.416306
C34	C	1.420413	0.337759	0.583723
H35	H	1.043008	0.410702	0.000014
H36	H	1.523265	0.281962	0.354179
C37	C	1.654251	-0.248234	-0.138043
H38	H	1.708528	-0.230969	-0.220932
H39	H	1.654347	-0.307921	-0.141589
H40	H	1.681535	-0.220046	-0.052388
H41	H	1.343722	0.379346	0.645846
H42	H	1.302967	0.401433	0.406234
C43	C	1.389816	-0.224494	0.277612
H44	H	1.387014	-0.283935	0.278914
H45	H	1.308739	-0.208681	0.279757
H46	H	1.420468	-0.194827	0.360183
C47	C	1.479203	-0.112911	-0.276588
H48	H	1.408847	-0.080320	-0.249863
H49	H	1.457881	-0.165903	-0.330803
H50	H	1.544386	-0.082959	-0.334219
H51	H	1.572555	-0.218904	0.144455
H52	H	1.230558	-0.245256	0.097926
C53	C	1.590983	0.245297	0.572010
H54	H	1.595001	0.243132	0.470495
H55	H	1.573743	0.189528	0.596870
H56	H	1.668152	0.268606	0.596883
C57	C	1.656482	-0.088605	-0.149850
H58	H	1.706624	-0.115864	-0.234511
H59	H	1.687647	-0.095676	-0.066348
H60	H	1.658056	-0.029751	-0.155648
C61	C	1.611923	-0.064939	0.145027
H62	H	1.641735	-0.036003	0.063592
H63	H	1.664742	-0.108404	0.143747
H64	H	1.611000	-0.025839	0.232025
H65	H	0.824003	0.250594	-0.000031
H66	H	1.037037	0.212664	-0.000028
H67	H	0.829962	0.448650	0.000012
C68	C	1.252487	-0.112377	-0.133682
H69	H	1.231152	-0.165059	-0.188814
H70	H	1.315101	-0.080983	-0.192106
H71	H	1.181204	-0.080872	-0.102595
H72	H	1.261230	-0.260983	-0.099551
H73	H	1.233768	-0.100491	0.099153
C74	C	1.485426	-0.273710	-0.278149
H75	H	1.541210	-0.255687	-0.359358
H76	H	1.403427	-0.262467	-0.282391
H77	H	1.489155	-0.332947	-0.279924
C78	C	1.396330	-0.063897	0.276890
H79	H	1.334868	-0.034945	0.250997
H80	H	1.445539	-0.024684	0.332758
H81	H	1.357263	-0.106876	0.332542
