data_functionalizedCrystal
_audit_creation_method	'MofGen! by Chris Wilmer'
_symmetry_space_group_name_H-M	'P1'
_symmetry_Int_Tables_number	1
_symmetry_cell_setting	triclinic
loop_
_symmetry_equiv_pos_as_xyz
  x,y,z
_cell_length_a	8.597340
_cell_length_b	15.995292
_cell_length_c	7.088929
_cell_angle_alpha	83.780829
_cell_angle_beta	103.954719
_cell_angle_gamma	84.406495
loop_
_atom_site_label
_atom_site_type_symbol
_atom_site_fract_x
_atom_site_fract_y
_atom_site_fract_z
O1	O	2.101323	0.114995	0.187178
O2	O	1.636635	0.128664	0.110628
O3	O	1.881729	-0.000071	0.151001
O4	O	1.856228	0.243729	0.146806
O5	O	1.914484	-0.017314	0.474371
O6	O	1.669389	0.111421	0.433999
O7	O	2.134077	0.097752	0.510549
Cu8	Cu	1.904724	0.103012	0.501800
Cu9	Cu	1.865988	0.123404	0.119377
O10	O	1.888983	0.226486	0.470176
C11	C	1.593549	0.119535	0.262517
C12	C	1.416368	0.118013	0.233329
C13	C	1.897068	-0.039887	0.312510
C14	C	1.893955	-0.132837	0.311983
C15	C	1.882517	-0.470568	0.310116
C16	C	2.059493	-0.447424	0.339981
C17	C	2.062781	-0.350712	0.339799
C18	C	1.888193	-0.303016	0.311044
C19	C	1.781046	-0.322206	0.111820
C20	C	1.778901	-0.418987	0.111321
C21	C	1.812537	-0.438450	0.478459
C22	C	1.819339	-0.342092	0.481972
C23	C	1.891390	-0.208321	0.311560
C24	C	1.879313	-0.565261	0.309586
C25	C	2.177162	0.106881	0.358655
C26	C	2.354342	0.108403	0.387831
C27	C	1.873643	0.266303	0.308662
C28	C	1.876755	0.359253	0.309177
N29	N	1.931980	0.088669	0.770778
N30	N	1.838744	0.137740	-0.149599
H31	H	2.145455	-0.338795	0.483574
H32	H	1.648348	-0.432996	0.081592
Br33	Br	1.928403	-0.498124	0.726930
H34	H	1.436790	0.101334	0.542445
Br35	Br	1.949725	-0.323362	0.727347
H36	H	1.826172	-0.438488	-0.016625
H37	H	1.333913	0.125077	0.078705
H38	H	2.141093	-0.482532	0.483637
Br39	Br	1.608820	-0.287979	0.465584
Br40	Br	2.150292	-0.484167	0.139129
Br41	Br	2.156521	-0.308328	0.137918
H42	H	2.028627	0.037820	0.868354
Br43	Br	1.677688	0.222501	0.687793
H44	H	1.651876	-0.289878	0.083794
H45	H	1.828544	-0.294862	-0.015485
Br46	Br	1.595718	-0.461719	0.444791
