data_functionalizedCrystal
_audit_creation_method	'MofGen! by Chris Wilmer'
_symmetry_space_group_name_H-M	'P1'
_symmetry_Int_Tables_number	1
_symmetry_cell_setting	triclinic
loop_
_symmetry_equiv_pos_as_xyz
  x,y,z
_cell_length_a	14.971482
_cell_length_b	8.559649
_cell_length_c	14.048226
_cell_angle_alpha	89.995035
_cell_angle_beta	89.994098
_cell_angle_gamma	76.695636
loop_
_atom_site_label
_atom_site_type_symbol
_atom_site_fract_x
_atom_site_fract_y
_atom_site_fract_z
O1	O	1.172524	0.208175	-0.079144
O2	O	0.910396	0.233114	-0.079148
O3	O	1.064554	-0.011914	-0.079144
O4	O	1.018366	0.453203	-0.079147
O5	O	1.064538	-0.011929	0.079177
O6	O	0.910380	0.233099	0.079173
O7	O	1.172509	0.208160	0.079178
Zn8	Zn	1.041442	0.220627	0.104312
Zn9	Zn	1.041462	0.220646	-0.104283
O10	O	1.018351	0.453188	0.079174
C11	C	0.877140	0.231992	0.000012
C12	C	0.778074	0.228653	0.000011
C13	C	0.731530	0.227073	0.086313
C14	C	0.638451	0.223910	0.086314
C15	C	0.591916	0.222339	0.000012
C16	C	0.638467	0.223915	-0.086297
C17	C	0.731546	0.227066	-0.086297
C18	C	0.444460	0.217350	-0.086291
C19	C	0.351374	0.214201	-0.086291
C20	C	0.351365	0.214194	0.086320
C21	C	0.444444	0.217345	0.086320
C22	C	0.490988	0.218924	0.000011
C23	C	1.068046	-0.071445	0.000014
C24	C	1.078465	-0.248805	0.000009
C25	C	1.205764	0.209282	0.000015
C26	C	1.304830	0.212621	0.000011
C27	C	1.014858	0.512719	0.000013
C28	C	1.004439	0.690079	0.000012
N29	N	1.041435	0.220613	0.246673
N30	N	1.041478	0.220648	-0.246643
C31	C	1.109712	0.112160	0.296493
C32	C	1.109718	0.112159	0.396150
C33	C	1.041450	0.220621	0.445987
C34	C	0.973166	0.329079	0.396160
C35	C	0.973157	0.329071	0.296504
C36	C	0.973191	0.329091	0.603874
C37	C	0.973201	0.329101	0.703537
C38	C	1.109752	0.112179	0.703520
C39	C	1.109743	0.112171	0.603865
C40	C	1.041460	0.220632	0.554045
H41	H	0.482329	0.218634	0.156594
O42	O	1.176066	0.007037	0.444655
C43	C	1.225363	0.092781	0.502264
H44	H	1.181150	0.217692	0.517187
H45	H	1.290704	0.103837	0.463846
C46	C	1.304977	-0.150644	0.578604
C47	C	1.250670	0.002770	0.596940
H48	H	1.320591	-0.206168	0.637003
H49	H	1.271767	-0.208413	0.539789
H50	H	1.359421	-0.141409	0.546587
H51	H	1.196223	-0.006467	0.628946
H52	H	1.283871	0.060536	0.635763
H53	H	0.600563	0.222596	0.156589
O54	O	0.306231	0.212892	-0.170181
C55	C	0.309325	0.351941	-0.222681
H56	H	0.370367	0.400313	-0.198156
H57	H	0.243195	0.446990	-0.210709
C58	C	0.244607	0.250680	-0.359455
C59	C	0.319584	0.310083	-0.329338
H60	H	0.250931	0.224864	-0.425246
H61	H	0.242518	0.157003	-0.324084
H62	H	0.189506	0.329897	-0.349470
H63	H	0.374682	0.230859	-0.339312
H64	H	0.321682	0.403747	-0.364714
H65	H	1.165336	0.023861	0.563288
H66	H	1.165350	0.023866	0.744089
H67	H	0.917585	0.417406	0.563314
H68	H	0.600573	0.222624	-0.156566
O69	O	1.175957	0.006547	0.248150
C70	C	1.172280	-0.151624	0.272568
H71	H	1.100730	-0.152567	0.299964
H72	H	1.225056	-0.198379	0.330427
C73	C	1.281502	-0.258809	0.150425
C74	C	1.193621	-0.259970	0.184066
H75	H	1.294670	-0.325645	0.095835
H76	H	1.283983	-0.152247	0.133976
H77	H	1.325471	-0.297768	0.198649
H78	H	1.149652	-0.220992	0.135846
H79	H	1.191133	-0.366528	0.200504
O80	O	0.919338	-0.210416	-0.000163
C81	C	0.908810	-0.112870	-0.082151
H82	H	0.958713	-0.173906	-0.139458
H83	H	0.923723	0.008283	-0.063617
C84	C	0.748460	-0.012559	-0.048950
C85	C	0.809747	-0.087531	-0.119338
H86	H	0.687353	0.003079	-0.071887
H87	H	0.755553	-0.078273	0.006289
H88	H	0.760899	0.088394	-0.033511
H89	H	0.797314	-0.188489	-0.134766
H90	H	0.802649	-0.021833	-0.174581
H91	H	1.149817	-0.332176	0.000018
H92	H	0.917609	0.417420	0.744109
H93	H	0.769441	0.228356	-0.156573
O94	O	0.489744	0.219106	-0.170069
C95	C	0.523930	0.359212	-0.175237
H96	H	0.531319	0.405765	-0.100303
H97	H	0.474314	0.454819	-0.217826
C98	C	0.609240	0.263043	-0.316611
C99	C	0.618323	0.320213	-0.224575
H100	H	0.667464	0.238991	-0.347048
H101	H	0.586206	0.168653	-0.313132
H102	H	0.567890	0.342725	-0.352089
H103	H	0.659663	0.240524	-0.189095
H104	H	0.641366	0.414589	-0.228049
H105	H	0.917558	0.417383	0.255942
O106	O	0.776603	0.228521	0.170233
C107	C	0.715553	0.226483	0.246405
H108	H	0.656381	0.173701	0.221101
H109	H	0.687465	0.354218	0.272943
C110	C	0.839412	0.187836	0.359020
C111	C	0.766741	0.122996	0.327944
H112	H	0.870988	0.124007	0.409320
H113	H	0.880543	0.189215	0.307703
H114	H	0.815995	0.294280	0.381129
H115	H	0.790160	0.016562	0.305825
H116	H	0.725615	0.121597	0.379260
O117	O	0.306165	0.212351	0.170140
C118	C	0.271949	0.072276	0.175298
H119	H	0.313725	-0.023396	0.126317
H120	H	0.196966	0.101136	0.152121
C121	C	0.228119	0.127023	0.338564
C122	C	0.279434	0.009512	0.278411
H123	H	0.232731	0.088310	0.402170
H124	H	0.251167	0.221398	0.335089
H125	H	0.165638	0.151062	0.319239
H126	H	0.341915	-0.014510	0.297730
H127	H	0.256396	-0.084868	0.281892
H128	H	0.917576	0.417385	0.436743
