data_functionalizedCrystal
_audit_creation_method	'MofGen! by Chris Wilmer'
_symmetry_space_group_name_H-M	'P1'
_symmetry_Int_Tables_number	1
_symmetry_cell_setting	triclinic
loop_
_symmetry_equiv_pos_as_xyz
  x,y,z
_cell_length_a	25.639242
_cell_length_b	25.639240
_cell_length_c	12.759393
_cell_angle_alpha	90.043160
_cell_angle_beta	90.023696
_cell_angle_gamma	90.025061
loop_
_atom_site_label
_atom_site_type_symbol
_atom_site_fract_x
_atom_site_fract_y
_atom_site_fract_z
Zn1	Zn	0.799295	-0.208233	0.594005
Zn2	Zn	1.299295	0.291767	1.094005
Zn3	Zn	0.799213	-0.295678	0.418286
Zn4	Zn	1.299213	0.204322	0.918286
Zn5	Zn	0.711857	-0.208247	0.418331
Zn6	Zn	1.211857	0.291753	0.918331
Zn7	Zn	0.711825	-0.295627	0.593915
Zn8	Zn	1.211825	0.204373	1.093915
O9	O	0.755547	-0.251946	0.506134
O10	O	1.255547	0.248054	1.006134
O11	O	0.872449	-0.219848	0.570714
O12	O	1.372449	0.280152	1.070714
O13	O	0.787604	-0.284107	0.271271
O14	O	1.287604	0.215893	0.771271
O15	O	0.723503	-0.135080	0.441692
O16	O	1.223503	0.364920	0.941692
O17	O	0.872389	-0.284094	0.441614
O18	O	1.372389	0.215906	0.941614
O19	O	0.787743	-0.135069	0.570758
O20	O	1.287743	0.364931	1.070758
O21	O	0.723424	-0.219871	0.271304
O22	O	1.223424	0.280129	0.771304
O23	O	0.638687	-0.219822	0.441604
O24	O	1.138687	0.280178	0.941604
O25	O	0.723449	-0.284007	0.740948
O26	O	1.223449	0.215993	1.240948
O27	O	0.638664	-0.284021	0.570605
O28	O	1.138664	0.215979	1.070605
O29	O	0.787713	-0.219799	0.741014
O30	O	1.287713	0.280201	1.241014
O31	O	0.787573	-0.368836	0.441527
O32	O	1.287573	0.131164	0.941527
O33	O	0.723370	-0.368799	0.570561
O34	O	1.223370	0.131201	1.070561
C35	C	0.619705	-0.251918	0.506100
C36	C	1.119705	0.248082	1.006100
C37	C	0.561591	-0.251918	0.506111
C38	C	1.061591	0.248082	1.006111
C39	C	0.310437	-0.218553	0.573479
C40	C	0.810437	0.281447	1.073479
C41	C	0.365041	-0.218548	0.573473
C42	C	0.865041	0.281452	1.073473
O43	O	0.393311	-0.190156	0.630745
O44	O	0.893311	0.309844	1.130745
N45	N	0.392317	-0.251940	0.506146
N46	N	0.892317	0.248060	1.006146
C47	C	0.364986	-0.285344	0.438829
C48	C	0.864986	0.214656	0.938829
O49	O	0.393200	-0.313746	0.381562
O50	O	0.893200	0.186254	0.881562
C51	C	0.310382	-0.285351	0.438841
C52	C	0.810382	0.214649	0.938841
C53	C	0.283109	-0.251953	0.506164
C54	C	0.783109	0.248047	1.006164
C55	C	0.283164	-0.185158	0.640798
C56	C	0.783164	0.314842	1.140798
C57	C	0.228563	-0.185162	0.640803
C58	C	0.728563	0.314838	1.140803
C59	C	0.201236	-0.218562	0.573488
C60	C	0.701236	0.281438	1.073488
C61	C	0.228509	-0.251957	0.506169
C62	C	0.728509	0.248043	1.006169
C63	C	0.283052	-0.318757	0.371529
C64	C	0.783052	0.181243	0.871529
C65	C	0.228445	-0.318761	0.371547
C66	C	0.728445	0.181239	0.871547
C67	C	0.201172	-0.285363	0.438871
C68	C	0.701172	0.214637	0.938871
C69	C	0.146581	-0.285362	0.438858
C70	C	0.646581	0.214638	0.938858
N71	N	0.119305	-0.251969	0.506185
N72	N	0.619305	0.248031	1.006185
C73	C	0.146632	-0.218570	0.573500
C74	C	0.646632	0.281430	1.073500
C75	C	0.479656	-0.285326	0.438810
C76	C	0.979656	0.214674	0.938810
C77	C	0.534259	-0.285316	0.438792
C78	C	1.034259	0.214684	0.938792
C79	C	0.534310	-0.218521	0.573438
C80	C	1.034310	0.281479	1.073438
C81	C	0.479707	-0.218529	0.573450
C82	C	0.979707	0.281471	1.073450
C83	C	0.452380	-0.251934	0.506137
C84	C	0.952380	0.248066	1.006137
C85	C	0.031967	-0.218581	0.573503
C86	C	0.531967	0.281419	1.073503
C87	C	-0.022638	-0.218587	0.573499
C88	C	0.477362	0.281413	1.073499
C89	C	-0.022685	-0.285384	0.438857
C90	C	0.477315	0.214616	0.938857
C91	C	0.031916	-0.285377	0.438857
C92	C	0.531916	0.214623	0.938857
C93	C	0.059240	-0.251973	0.506189
C94	C	0.559240	0.248027	1.006189
O95	O	0.118276	-0.313740	0.381619
O96	O	0.618276	0.186260	0.881619
O97	O	0.118411	-0.190176	0.630767
O98	O	0.618411	0.309824	1.130767
C99	C	0.755474	-0.387789	0.506052
C100	C	1.255474	0.112211	1.006052
C101	C	0.755490	-0.445903	0.506052
C102	C	1.255490	0.054097	1.006052
C103	C	0.789014	-0.806222	0.573460
C104	C	1.289014	-0.306222	1.073460
C105	C	0.789029	-0.860826	0.573482
C106	C	1.289029	-0.360826	1.073482
O107	O	0.817445	-0.889026	0.630710
O108	O	1.317445	-0.389026	1.130710
N109	N	0.755620	-0.888185	0.506236
N110	N	1.255620	-0.388185	1.006236
C111	C	0.722189	-0.860937	0.438972
C112	C	1.222189	-0.360937	0.938972
O113	O	0.693773	-0.889222	0.381776
O114	O	1.193773	-0.389222	0.881776
C115	C	0.722172	-0.806334	0.438956
C116	C	1.222172	-0.306334	0.938956
C117	C	0.755587	-0.778978	0.506199
C118	C	1.255587	-0.278978	1.006199
C119	C	0.822426	-0.778866	0.640699
C120	C	1.322426	-0.278866	1.140699
C121	C	0.822411	-0.724265	0.640676
C122	C	1.322411	-0.224265	1.140676
C123	C	0.788984	-0.697021	0.573414
C124	C	1.288984	-0.197021	1.073414
C125	C	0.755572	-0.724377	0.506176
C126	C	1.255572	-0.224377	1.006176
C127	C	0.688739	-0.779086	0.371698
C128	C	1.188739	-0.279086	0.871698
C129	C	0.688724	-0.724479	0.371689
C130	C	1.188724	-0.224479	0.871689
C131	C	0.722139	-0.697123	0.438932
C132	C	1.222139	-0.197123	0.938932
C133	C	0.722130	-0.642532	0.438892
C134	C	1.222130	-0.142532	0.938892
N135	N	0.755540	-0.615173	0.506138
N136	N	1.255540	-0.115173	1.006138
C137	C	0.788967	-0.642418	0.573399
C138	C	1.288967	-0.142418	1.073399
C139	C	0.722228	-0.975608	0.439010
C140	C	1.222228	-0.475608	0.939010
C141	C	0.722248	-1.030210	0.439019
C142	C	1.222248	-0.530210	0.939019
C143	C	0.789088	-1.030096	0.573531
C144	C	1.289088	-0.530096	1.073531
C145	C	0.789070	-0.975492	0.573516
C146	C	1.289070	-0.475492	1.073516
C147	C	0.755638	-0.948249	0.506256
C148	C	1.255638	-0.448249	1.006256
C149	C	0.788933	-0.527753	0.573345
C150	C	1.288933	-0.027753	1.073345
C151	C	0.788917	-0.473147	0.573313
C152	C	1.288917	0.026853	1.073313
C153	C	0.722076	-0.473266	0.438806
C154	C	1.222076	0.026734	0.938806
C155	C	0.722094	-0.527867	0.438833
C156	C	1.222094	-0.027867	0.938833
C157	C	0.755524	-0.555109	0.506112
C158	C	1.255524	-0.055109	1.006112
O159	O	0.693728	-0.614298	0.381696
O160	O	1.193728	-0.114298	0.881696
O161	O	0.817373	-0.614126	0.630594
O162	O	1.317373	-0.114126	1.130594
C163	C	0.891920	-0.251975	0.506169
C164	C	1.391920	0.248025	1.006169
C165	C	0.950034	-0.251987	0.506184
C166	C	1.450034	0.248013	1.006184
C167	C	0.755587	-0.251896	0.780168
C168	C	1.255587	0.248104	1.280168
C169	C	0.755603	-0.251875	0.896945
C170	C	1.255603	0.248125	1.396945
C171	C	0.755636	-0.115573	0.506240
C172	C	1.255636	0.384427	1.006240
C173	C	0.755674	-0.057459	0.506285
C174	C	1.255674	0.442541	1.006285
C175	C	0.755539	-0.251958	0.233167
C176	C	1.255539	0.248042	0.733167
C177	C	0.755623	-0.251833	0.116391
C178	C	1.255623	0.248167	0.616391
C179	C	0.789068	-0.218436	0.951843
C180	C	1.289068	0.281564	1.451843
C181	C	0.789077	-0.218413	1.061567
C182	C	1.289077	0.281587	1.561567
C183	C	0.722155	-0.285273	1.061485
C184	C	1.222155	0.214727	1.561485
C185	C	0.722144	-0.285292	0.951763
C186	C	1.222144	0.214708	1.451763
C187	C	0.807814	-0.156729	1.211574
C188	C	1.307814	0.343271	1.711574
C189	C	0.841286	-0.123295	1.266476
C190	C	1.341286	0.376705	1.766476
C191	C	0.892305	-0.115286	1.230893
C192	C	1.392305	0.384714	1.730893
C193	C	0.909860	-0.140718	1.140410
C194	C	1.409860	0.359282	1.640410
C195	C	0.876391	-0.174156	1.085514
C196	C	1.376391	0.325844	1.585514
C197	C	0.825365	-0.182156	1.121095
C198	C	1.325365	0.317844	1.621095
C199	C	0.703412	-0.346977	0.801754
C200	C	1.203412	0.153023	1.301754
C201	C	0.669945	-0.380418	0.746855
C202	C	1.169945	0.119582	1.246855
C203	C	0.618926	-0.388433	0.782436
C204	C	1.118926	0.111567	1.282436
C205	C	0.601372	-0.363009	0.872923
C206	C	1.101372	0.136991	1.372923
C207	C	0.634839	-0.329568	0.927821
C208	C	1.134839	0.170432	1.427821
C209	C	0.685858	-0.321553	0.892232
C210	C	1.185858	0.178447	1.392232
H211	H	0.305408	-0.157959	0.695619
H212	H	0.805408	0.342041	1.195619
F213	F	0.061041	-0.183030	0.645165
F214	F	0.561041	0.316970	1.145165
H215	H	0.816311	-0.191224	0.907213
H216	H	1.316311	0.308776	1.407213
F217	F	-0.051778	-0.320928	0.367217
F218	F	0.448222	0.179072	0.867217
F219	F	0.653171	-0.808189	0.300131
F220	F	1.153171	-0.308189	0.800131
F221	F	0.822601	-0.096230	1.362772
F222	F	1.322601	0.403770	1.862772
F223	F	0.450686	-0.182983	0.645105
F224	F	0.950686	0.317017	1.145105
H225	H	0.694915	-0.312481	1.106132
H226	H	1.194915	0.187519	1.606132
H227	H	0.694861	-0.451075	0.384039
H228	H	1.194861	0.048925	0.884039
H229	H	0.816279	-0.953222	0.628271
H230	H	1.316279	-0.453222	1.128271
H231	H	0.744955	-0.340450	0.772769
H232	H	1.244955	0.159550	1.272769
F233	F	0.653139	-0.695488	0.300101
F234	F	1.153139	-0.195488	0.800101
H235	H	0.816305	-1.052288	0.628301
H236	H	1.316305	-0.552288	1.128301
F237	F	0.686646	-0.946618	0.367412
F238	F	1.186646	-0.446618	0.867412
F239	F	0.199544	-0.149619	0.712466
F240	F	0.699544	0.350381	1.212466
F241	F	0.563404	-0.182974	0.645081
F242	F	1.063404	0.317026	1.145081
H243	H	0.684244	-0.401124	0.673183
H244	H	1.184244	0.098876	1.173183
H245	H	-0.044841	-0.191388	0.628321
H246	H	0.455159	0.308612	1.128321
F247	F	0.563279	-0.320855	0.367119
F248	F	1.063279	0.179145	0.867119
F249	F	0.686536	-0.556982	0.367254
F250	F	1.186536	-0.056982	0.867254
H251	H	0.695044	-1.052478	0.384252
H252	H	1.195044	-0.552478	0.884252
F253	F	0.450578	-0.320878	0.367151
F254	F	0.950578	0.179122	0.867151
F255	F	0.312067	-0.354298	0.299859
F256	F	0.812067	0.145702	0.799859
F257	F	0.895072	-0.201223	0.989222
F258	F	1.395072	0.298777	1.489222
H259	H	0.054123	-0.312568	0.384027
H260	H	0.554123	0.187432	0.884027
F261	F	0.753511	-0.165245	1.249443
F262	F	1.253511	0.334755	1.749443
H263	H	0.620542	-0.308868	1.001500
H264	H	1.120542	0.191132	1.501500
F265	F	0.583311	-0.424033	0.724016
F266	F	1.083311	0.075967	1.224016
F267	F	0.199366	-0.354320	0.299907
F268	F	0.699366	0.145680	0.799907
H269	H	0.816129	-0.450876	0.628070
H270	H	1.316129	0.049124	1.128070
H271	H	0.816152	-0.549926	0.628137
H272	H	1.316152	-0.049926	1.128137
F273	F	0.857974	-0.695158	0.712252
F274	F	1.357974	-0.195158	1.212252
H275	H	0.849646	-0.801043	0.695477
H276	H	1.349646	-0.301043	1.195477
F277	F	0.964165	-0.132199	1.102555
F278	F	1.464165	0.367801	1.602555
H279	H	0.919558	-0.088063	1.275602
H280	H	1.419558	0.411937	1.775602
F281	F	0.547072	-0.371540	0.910796
F282	F	1.047072	0.128460	1.410796
