data_functionalizedCrystal
_audit_creation_method	'MofGen! by Chris Wilmer'
_symmetry_space_group_name_H-M	'P1'
_symmetry_Int_Tables_number	1
_symmetry_cell_setting	triclinic
loop_
_symmetry_equiv_pos_as_xyz
  x,y,z
_cell_length_a	31.640172
_cell_length_b	31.640171
_cell_length_c	20.875652
_cell_angle_alpha	57.570871
_cell_angle_beta	89.992737
_cell_angle_gamma	59.987882
loop_
_atom_site_label
_atom_site_type_symbol
_atom_site_fract_x
_atom_site_fract_y
_atom_site_fract_z
Zr1	Zr	0.404931	0.466995	-0.087756
O2	O	0.334847	0.560354	-0.194143
O3	O	0.426433	0.377207	-0.055097
O4	O	0.423050	0.472136	-0.194083
O5	O	0.340878	0.460125	0.054427
O6	O	0.492606	0.472129	-0.194088
O7	O	0.338230	0.465425	-0.055157
O8	O	0.498658	0.302319	0.054534
O9	O	0.334826	0.629935	-0.194195
O10	O	0.487491	0.412811	-0.041226
O11	O	0.437558	0.408860	0.040558
O12	O	0.433575	0.520627	-0.123081
O13	O	0.383643	0.516676	-0.041297
Zr14	Zr	0.520089	0.458530	0.087010
Zr15	Zr	0.515865	0.466984	-0.087763
Zr16	Zr	0.409155	0.458542	0.087017
Zr17	Zr	0.404898	0.577969	-0.087838
Zr18	Zr	0.520121	0.347557	0.087093
O19	O	0.498586	0.548318	0.054351
O20	O	0.492580	0.560339	-0.194153
O21	O	0.340852	0.548334	0.054361
O22	O	0.590173	0.365171	0.193398
O23	O	0.584167	0.377192	-0.055107
O24	O	0.432439	0.365187	0.193408
O25	O	0.584141	0.465401	-0.055172
O26	O	0.501969	0.453389	0.193338
O27	O	0.432413	0.453396	0.193343
O28	O	0.586790	0.460100	0.054411
O29	O	0.423004	0.629927	-0.194200
O30	O	0.502015	0.295599	0.193455
O31	O	0.590193	0.295590	0.193450
O32	O	0.586835	0.302310	0.054528
O33	O	0.338184	0.623216	-0.055274
O34	O	0.426362	0.623207	-0.055279
O35	O	0.491444	0.404899	0.122336
O36	O	0.541376	0.408850	0.040551
O37	O	0.487461	0.516666	-0.041303
O38	O	0.437528	0.512715	0.040481
C39	C	0.462550	0.323952	-0.000270
C40	C	0.462563	0.276841	-0.000235
C41	C	0.436445	-0.061438	0.042325
C42	C	0.436475	0.115512	0.042397
O43	O	0.414330	0.136618	0.078739
N44	N	0.462543	0.139703	-0.000285
C45	C	0.488609	0.119650	-0.042984
O46	O	0.510786	0.144281	-0.079280
C47	C	0.488582	-0.057303	-0.043051
C48	C	0.462508	-0.081486	-0.000373
C49	C	0.410374	-0.085622	0.085001
C50	C	0.410364	-0.129854	0.084979
C51	C	0.436427	-0.149903	0.042281
C52	C	0.462498	-0.125719	-0.000395
C53	C	0.514651	-0.077358	-0.085745
C54	C	0.514643	-0.121600	-0.085756
C55	C	0.488568	-0.145784	-0.043077
C56	C	0.488551	-0.190000	-0.043114
N57	N	0.462483	-0.214190	-0.000432
C58	C	0.436421	-0.194141	0.042266
C59	C	0.488620	0.212553	-0.042948
C60	C	0.488626	0.256792	-0.042932
C61	C	0.436493	0.252651	0.042450
C62	C	0.436484	0.208414	0.042430
C63	C	0.462552	0.188363	-0.000265
C64	C	0.436402	-0.287032	0.042216
C65	C	0.436393	-0.331266	0.042187
C66	C	0.488529	-0.327123	-0.043192
C67	C	0.488536	-0.282891	-0.043167
C68	C	0.462472	-0.262848	-0.000457
O69	O	0.510689	-0.211139	-0.079430
O70	O	0.414256	-0.218790	0.078571
C71	C	0.436455	-0.017206	0.042347
C72	C	0.462527	0.006978	-0.000329
C73	C	0.488589	-0.013070	-0.043026
C74	C	0.462533	0.051217	-0.000313
C75	C	0.436470	0.071266	0.042385
C76	C	0.410402	0.047075	0.085067
C77	C	0.410393	0.002843	0.085045
C78	C	0.514657	0.011120	-0.085709
C79	C	0.514664	0.055353	-0.085684
C80	C	0.488602	0.075402	-0.042986
C81	C	0.323748	0.462777	-0.000364
C82	C	0.276654	0.462781	-0.000361
C83	C	-0.016811	0.465672	-0.060741
C84	C	-0.193798	0.465665	-0.060747
O85	O	-0.217911	0.468121	-0.112070
N86	N	-0.214469	0.462746	-0.000378
C87	C	-0.190889	0.459825	0.060001
O88	O	-0.212530	0.457335	0.111353
C89	C	-0.013901	0.459828	0.060009
C90	C	0.006765	0.462753	-0.000369
C91	C	0.003856	0.468597	-0.121114
C92	C	0.048098	0.468602	-0.121115
C93	C	0.071674	0.465682	-0.060742
C94	C	0.051007	0.462758	-0.000369
C95	C	0.009680	0.456902	0.120391
C96	C	0.053930	0.456901	0.120389
C97	C	0.074596	0.459827	0.060010
C98	C	0.118825	0.459844	0.060003
N99	N	0.139497	0.462763	-0.000367
C100	C	0.115921	0.465682	-0.060740
C101	C	-0.283811	0.459825	0.059991
C102	C	-0.328059	0.459825	0.059988
C103	C	-0.330963	0.465664	-0.060759
C104	C	-0.286717	0.465668	-0.060759
C105	C	-0.263140	0.462744	-0.000379
C106	C	0.208833	0.465693	-0.060736
C107	C	0.253078	0.465701	-0.060733
C108	C	0.255980	0.459858	0.060016
C109	C	0.211737	0.459854	0.060011
C110	C	0.188166	0.462770	-0.000369
O111	O	0.142968	0.457382	0.111304
O112	O	0.137576	0.468157	-0.112074
C113	C	-0.061053	0.465667	-0.060741
C114	C	-0.081720	0.462743	-0.000368
C115	C	-0.058144	0.459823	0.060004
C116	C	-0.125967	0.462743	-0.000371
C117	C	-0.149543	0.465662	-0.060743
C118	C	-0.128871	0.468581	-0.121113
C119	C	-0.084629	0.468586	-0.121113
C120	C	-0.078816	0.456904	0.120374
C121	C	-0.123059	0.456900	0.120369
C122	C	-0.146634	0.459819	0.059997
C123	C	0.601271	0.462749	-0.000381
C124	C	0.648365	0.462744	-0.000384
C125	C	0.457226	0.473337	-0.218987
C126	C	0.455433	0.476926	-0.293183
C127	C	0.462469	0.601574	-0.000476
C128	C	0.462456	0.648685	-0.000511
C129	C	0.442287	0.503190	-0.715429
C130	C	0.443975	0.499813	-0.645710
C131	C	0.472966	0.441845	-0.568126
C132	C	0.500267	0.387250	-0.560262
C133	C	0.498575	0.390628	-0.629979
C134	C	0.481041	0.425709	-0.355036
C135	C	0.482732	0.422336	-0.285316
C136	C	0.426440	0.534899	-0.370770
C137	C	0.424753	0.538271	-0.440485
C138	C	0.452051	0.483677	-0.432615
N139	N	0.474694	0.438392	-0.496862
N140	N	0.450320	0.487130	-0.503878
C141	C	0.467793	0.452188	0.218242
C142	C	0.469586	0.448600	0.292438
C143	C	0.601311	0.323938	-0.000278
C144	C	0.648419	0.276822	-0.000246
C145	C	0.467833	0.313377	0.218345
C146	C	0.469640	0.262677	0.292575
C147	C	0.606595	0.313364	0.218336
C148	C	0.655496	0.262659	0.292564
C149	C	0.318424	0.612162	-0.219081
C150	C	0.269523	0.662867	-0.293309
C151	C	0.323708	0.601588	-0.000467
C152	C	0.276600	0.648704	-0.000499
C153	C	0.457186	0.612148	-0.219090
C154	C	0.455379	0.662849	-0.293321
C155	C	0.642414	0.256764	-0.042926
C156	C	0.686672	0.212500	-0.042912
C157	C	0.736936	0.188293	-0.000214
C158	C	0.742940	0.208355	0.042467
C159	C	0.698682	0.252621	0.042448
C160	C	0.498617	0.236800	0.370129
C161	C	0.500312	0.189168	0.439884
C162	C	0.473035	0.167411	0.432082
C163	C	0.444055	0.193293	0.354520
C164	C	0.442356	0.240927	0.284768
C165	C	0.704529	0.240909	0.284731
C166	C	0.750481	0.193273	0.354469
C167	C	0.747399	0.167384	0.432039
C168	C	0.698360	0.189138	0.439870
C169	C	0.652409	0.236776	0.370133
C170	C	0.220490	0.684622	-0.285477
C171	C	0.174538	0.732272	-0.355215
C172	C	0.177620	0.758163	-0.432784
C173	C	0.226659	0.736406	-0.440615
C174	C	0.272610	0.688760	-0.370878
C175	C	0.282605	0.668767	0.042173
C176	C	0.238346	0.713044	0.042140
C177	C	0.188083	0.737253	-0.000560
C178	C	0.182078	0.717188	-0.043238
C179	C	0.226337	0.672916	-0.043209
C180	C	0.482663	0.684590	-0.285493
C181	C	0.480975	0.732222	-0.355234
C182	C	0.452001	0.758115	-0.432802
C183	C	0.424716	0.736368	-0.440628
C184	C	0.426407	0.688734	-0.370888
H185	H	0.415158	-0.350954	0.076941
O186	O	0.217513	0.659387	-0.210114
C187	C	0.242545	0.595282	-0.167175
H188	H	0.243496	0.585349	-0.212395
H189	H	0.220011	0.580703	-0.128620
H190	H	0.284368	0.567959	-0.125789
H191	H	0.601491	0.276474	-0.077706
H192	H	0.535883	-0.057674	-0.120497
O193	O	0.244155	0.732623	0.083479
C194	C	0.218839	0.797302	0.028648
H195	H	0.215238	0.812539	-0.035682
H196	H	0.242756	0.809116	0.047156
H197	H	0.178053	0.822553	0.030130
O198	O	0.385040	0.066507	0.126557
C199	C	0.362036	0.035666	0.164247
H200	H	0.355848	0.019076	0.130745
H201	H	0.322618	0.068990	0.161941
H202	H	0.389040	-0.006005	0.230528
O203	O	0.145075	0.780342	-0.000726
C204	C	0.113454	0.835461	-0.081537
H205	H	0.138477	0.837304	-0.120884
H206	H	0.095507	0.877340	-0.082420
H207	H	0.080809	0.836312	-0.106652
H208	H	0.520804	0.346174	-0.623569
H209	H	0.506257	0.663516	-0.222340
O210	O	0.396496	0.761531	-0.515935
C211	C	0.343375	0.787596	-0.524904
H212	H	0.340460	0.764561	-0.462137
H213	H	0.325887	0.779679	-0.561580
H214	H	0.320825	0.839624	-0.558245
H215	H	0.681773	0.196171	-0.077668
O216	O	0.450263	0.804448	-0.500603
C217	C	0.397852	0.857933	-0.547338
H218	H	0.370258	0.843839	-0.532098
H219	H	0.391084	0.882635	-0.614979
H220	H	0.389833	0.890575	-0.532730
O221	O	0.414287	0.266048	0.209390
C222	C	0.448045	0.257278	0.166530
H223	H	0.484351	0.250488	0.193141
H224	H	0.426755	0.299833	0.099406
H225	H	0.460327	0.214422	0.172386
H226	H	0.503193	0.749923	-0.348846
H227	H	0.418681	0.550394	-0.778598
H228	H	0.703579	0.268946	0.077207
H229	H	0.389134	-0.149543	0.119735
H230	H	0.389151	-0.069305	0.119774
O231	O	0.411137	0.272236	0.083812
C232	C	0.371768	0.336919	0.028990
H233	H	0.381792	0.358418	-0.027210
H234	H	0.369249	0.358330	0.059975
H235	H	0.332428	0.346312	0.009877
O236	O	0.540050	-0.008360	-0.127133
C237	C	0.593716	-0.035524	-0.095703
H238	H	0.598913	-0.017076	-0.064407
H239	H	0.609056	-0.023285	-0.147666
H240	H	0.616573	-0.088172	-0.049622
O241	O	0.399847	0.667645	-0.378407
C242	C	0.362711	0.676677	-0.340677
H243	H	0.375263	0.679860	-0.293149
H244	H	0.360157	0.635888	-0.309725
H245	H	0.322686	0.721585	-0.388646
H246	H	0.772969	0.152248	-0.000204
H247	H	0.141148	0.736906	-0.078004
O248	O	-0.348142	0.456911	0.118653
C249	C	-0.346895	0.403256	0.162879
H250	H	-0.345873	0.387964	0.123996
H251	H	-0.383407	0.414046	0.179303
H252	H	-0.310397	0.364373	0.221097
H253	H	0.520830	0.254509	0.376497
H254	H	0.474422	0.128623	0.488886
O255	O	0.126949	0.753305	-0.347452
C256	C	0.134087	0.720237	-0.264031
H257	H	0.174487	0.673570	-0.226839
H258	H	0.102592	0.712136	-0.254301
H259	H	0.130955	0.748263	-0.243497
H260	H	0.389160	-0.016844	0.119798
H261	H	0.140200	0.796959	-0.489562
O262	O	0.707489	0.266131	0.209357
C263	C	0.682483	0.330233	0.166399
H264	H	0.652942	0.347758	0.192956
H265	H	0.661237	0.356391	0.099291
H266	H	0.713050	0.338384	0.172212
H267	H	0.535895	0.075044	-0.120445
O268	O	0.417513	0.172242	0.346803
C269	C	0.391582	0.205280	0.263396
H270	H	0.385295	0.251952	0.226165
H271	H	0.351990	0.213367	0.253692
H272	H	0.416493	0.177235	0.242884
O273	O	-0.151740	0.471305	-0.179658
C274	C	-0.150686	0.418011	-0.142661
H275	H	-0.117832	0.378985	-0.080030
H276	H	-0.143501	0.402642	-0.182427
H277	H	-0.189873	0.429313	-0.135612
O278	O	0.411176	0.184940	0.083999
C279	C	0.388175	0.212128	0.121684
H280	H	0.409626	0.229962	0.130108
H281	H	0.391169	0.175900	0.183731
H282	H	0.345133	0.252504	0.081690
O283	O	0.798071	0.172198	0.346707
C284	C	0.790932	0.205271	0.263286
H285	H	0.750539	0.225307	0.226113
H286	H	0.822438	0.172534	0.253585
H287	H	0.794046	0.244714	0.242703
O288	O	0.528386	0.164084	0.515238
C289	C	0.494641	0.172822	0.558126
H290	H	0.452711	0.213808	0.512870
H291	H	0.507320	0.182686	0.596650
H292	H	0.496606	0.129040	0.599537
O293	O	0.513864	0.193093	-0.084487
C294	C	0.477616	0.206861	-0.144453
H295	H	0.442382	0.211506	-0.126521
H296	H	0.497150	0.167810	-0.149631
H297	H	0.464008	0.252397	-0.205695
O298	O	0.791806	0.184750	0.083934
C299	C	0.829575	0.141389	0.074778
H300	H	0.811944	0.122807	0.059061
H301	H	0.865146	0.101261	0.134219
H302	H	0.842177	0.165035	0.023653
H303	H	0.221440	0.656582	-0.077956
H304	H	0.509851	0.276487	-0.077695
O305	O	0.229555	0.761607	-0.516030
C306	C	0.178480	0.808332	-0.575893
H307	H	0.149815	0.799747	-0.548699
H308	H	0.177656	0.807343	-0.629653
H309	H	0.166668	0.855687	-0.597734
H310	H	0.415177	-0.270717	0.076992
O311	O	0.792089	0.121091	0.499694
C312	C	0.836026	0.107461	0.476137
H313	H	0.824301	0.122777	0.411777
H314	H	0.868359	0.055297	0.520206
H315	H	0.850947	0.133283	0.477379
H316	H	-0.350167	0.468042	-0.109918
H317	H	0.695858	0.168053	0.503037
O318	O	-0.143206	0.454171	0.178924
C319	C	-0.195461	0.507455	0.141953
H320	H	-0.201652	0.546491	0.079316
H321	H	-0.203648	0.522816	0.181728
H322	H	-0.223338	0.496145	0.134919
H323	H	0.612486	0.254479	0.376521
O324	O	0.320198	0.667679	-0.378638
C325	C	0.313058	0.700762	-0.462059
H326	H	0.272661	0.720809	-0.499236
H327	H	0.344558	0.668029	-0.471770
H328	H	0.316180	0.740197	-0.482627
H329	H	0.323528	0.649059	0.076951
O330	O	0.068208	0.471326	-0.179696
C331	C	0.083236	0.419635	-0.175828
H332	H	0.090618	0.380557	-0.112123
H333	H	0.120649	0.403007	-0.189591
H334	H	0.050596	0.433542	-0.222641
O335	O	0.540042	-0.141089	-0.127174
C336	C	0.593707	-0.168257	-0.095735
H337	H	0.598903	-0.149804	-0.064447
H338	H	0.609054	-0.156029	-0.147691
H339	H	0.616560	-0.220904	-0.049645
O340	O	0.513906	-0.259477	-0.084640
C341	C	0.536893	-0.286646	-0.122351
H342	H	0.543058	-0.333119	-0.088879
H343	H	0.576322	-0.294412	-0.120027
H344	H	0.509890	-0.254379	-0.188639
H345	H	0.269902	0.468085	-0.109903
O346	O	0.513839	-0.346691	-0.084594
C347	C	0.508227	-0.390910	-0.075470
H348	H	0.499638	-0.413059	-0.017809
H349	H	0.546063	-0.428393	-0.070562
H350	H	0.474443	-0.367035	-0.130658
H351	H	0.189646	0.468066	-0.109902
O352	O	-0.019006	0.471323	-0.179666
C353	C	-0.017959	0.418037	-0.142700
H354	H	0.014887	0.379002	-0.080060
H355	H	-0.010766	0.402676	-0.182475
H356	H	-0.057152	0.429343	-0.135673
O357	O	-0.266695	0.468480	-0.119445
C358	C	-0.297006	0.471075	-0.172741
H359	H	-0.318346	0.450675	-0.140200
H360	H	-0.270252	0.443141	-0.192209
H361	H	-0.326931	0.521505	-0.228909
H362	H	0.194906	0.457481	0.109170
O363	O	-0.260987	0.457094	0.118582
C364	C	-0.297665	0.508782	0.114723
H365	H	-0.329365	0.547865	0.051018
H366	H	-0.276886	0.525404	0.128495
H367	H	-0.316403	0.494873	0.161534
O368	O	-0.010378	0.454136	0.179028
C369	C	-0.025431	0.505834	0.175156
H370	H	-0.002641	0.524499	0.144441
H371	H	-0.016558	0.491128	0.239520
H372	H	-0.069263	0.543679	0.138377
O373	O	0.076837	0.454149	0.178934
C374	C	0.075759	0.507457	0.141950
H375	H	0.072208	0.527821	0.075997
H376	H	0.113503	0.494200	0.176630
H377	H	0.040697	0.543457	0.143318
O378	O	0.278893	0.457110	0.118549
C379	C	0.277819	0.510416	0.081558
H380	H	0.274257	0.530781	0.015602
H381	H	0.315568	0.497156	0.116226
H382	H	0.242764	0.546415	0.082936
H383	H	0.421746	0.544267	-0.652123
O384	O	-0.064588	0.471530	-0.179825
C385	C	-0.065811	0.525167	-0.224030
H386	H	-0.097009	0.560887	-0.218148
H387	H	-0.075573	0.545694	-0.291052
H388	H	-0.025839	0.512294	-0.198636
O389	O	-0.055845	0.453962	0.179086
C390	C	-0.003416	0.400329	0.223290
H391	H	0.001125	0.364607	0.217408
H392	H	0.007344	0.379802	0.290312
H393	H	0.023680	0.413206	0.197896
O394	O	0.396672	0.594569	-0.515864
C395	C	0.430416	0.599883	-0.558762
H396	H	0.472344	0.566923	-0.513511
H397	H	0.417726	0.649696	-0.597338
H398	H	0.428463	0.587326	-0.600123
O399	O	0.510824	0.366060	-0.209901
C400	C	0.477082	0.360734	-0.167006
H401	H	0.440758	0.409093	-0.193660
H402	H	0.498374	0.334550	-0.099905
H403	H	0.464832	0.334252	-0.172764
O404	O	0.507644	0.372662	-0.347349
C405	C	0.561585	0.337592	-0.304317
H406	H	0.571027	0.369594	-0.310157
H407	H	0.585459	0.314285	-0.330791
H408	H	0.571888	0.300538	-0.237206
O409	O	0.528356	0.330976	-0.484854
C410	C	0.494613	0.325647	-0.441963
H411	H	0.458290	0.374005	-0.468609
H412	H	0.515904	0.299453	-0.374859
H413	H	0.482358	0.299172	-0.447736
H414	H	0.404214	0.579347	-0.377169
