data_functionalizedCrystal
_audit_creation_method	'MofGen! by Chris Wilmer'
_symmetry_space_group_name_H-M	'P1'
_symmetry_Int_Tables_number	1
_symmetry_cell_setting	triclinic
loop_
_symmetry_equiv_pos_as_xyz
  x,y,z
_cell_length_a	21.295418
_cell_length_b	21.295417
_cell_length_c	17.640968
_cell_angle_alpha	101.233941
_cell_angle_beta	101.240429
_cell_angle_gamma	90.045515
loop_
_atom_site_label
_atom_site_type_symbol
_atom_site_fract_x
_atom_site_fract_y
_atom_site_fract_z
Zn1	Zn	1.034385	-0.178287	0.447373
Zn2	Zn	1.013004	-0.304854	0.315169
Zn3	Zn	0.907820	-0.199635	0.315147
Zn4	Zn	0.929063	-0.283567	0.447278
O5	O	0.971068	-0.241586	0.381242
O6	O	1.119646	-0.195051	0.429886
O7	O	0.981213	-0.308739	0.204541
O8	O	0.924666	-0.108709	0.332718
O9	O	1.103938	-0.288039	0.332756
O10	O	1.017653	-0.093025	0.429864
O11	O	0.903935	-0.231435	0.204525
O12	O	0.822541	-0.210794	0.332625
O13	O	0.960873	-0.251759	0.557916
O14	O	0.838148	-0.272459	0.429701
O15	O	1.038252	-0.174410	0.557986
O16	O	1.001812	-0.390124	0.332663
O17	O	0.940141	-0.374485	0.429722
C18	C	0.807502	-0.241634	0.381151
C19	C	0.737530	-0.241666	0.381131
C20	C	0.970981	-0.405144	0.381202
C21	C	0.971006	-0.475110	0.381211
C22	C	0.712795	-0.273840	0.431603
C23	C	0.647058	-0.273819	0.431638
C24	C	0.606057	-0.241633	0.381188
C25	C	0.630800	-0.209451	0.330712
C26	C	0.696537	-0.209468	0.330684
N27	N	0.491649	-0.247853	0.312045
N28	N	0.429202	-0.247840	0.312074
C29	C	0.407996	-0.241579	0.381271
N30	N	0.451595	-0.235343	0.450440
N31	N	0.514047	-0.235359	0.450410
C32	C	0.534776	-0.241610	0.381213
C33	C	0.311982	-0.273732	0.431786
C34	C	0.246244	-0.273706	0.431823
C35	C	0.229986	-0.209342	0.330890
C36	C	0.295724	-0.209364	0.330860
C37	C	0.336717	-0.241562	0.381307
C38	C	1.019407	-0.499747	0.431831
C39	C	1.019432	-0.565487	0.431851
C40	C	0.971061	-0.606589	0.381236
C41	C	0.922652	-0.581945	0.330612
C42	C	0.922624	-0.516205	0.330600
N43	N	0.955163	-0.720997	0.312049
N44	N	0.955193	-0.783446	0.312063
C45	C	0.971140	-0.804658	0.381272
N46	N	0.987069	-0.761061	0.450467
N47	N	0.987042	-0.698606	0.450452
C48	C	0.971085	-0.677873	0.381244
C49	C	1.019572	-0.900576	0.431917
C50	C	1.019593	-0.966317	0.431938
C51	C	0.922814	-0.982774	0.330693
C52	C	0.922791	-0.917034	0.330679
C53	C	0.971173	-0.875939	0.381290
C54	C	1.135273	-0.241538	0.381334
C55	C	1.205247	-0.241518	0.381373
C56	C	1.004317	-0.208329	0.587437
C57	C	1.018485	-0.194157	0.675304
C58	C	0.971175	-0.077386	0.381299
C59	C	0.971220	-0.007414	0.381324
C60	C	0.937985	-0.274668	0.175849
C61	C	0.923938	-0.288663	0.087982
C62	C	0.863672	-0.348908	0.964108
C63	C	0.876999	-0.335583	1.046673
C64	C	0.957567	-0.255047	1.046736
C65	C	0.944245	-0.268363	0.964169
C66	C	0.897297	-0.315294	0.922861
C67	C	0.977870	-0.234749	0.922922
C68	C	0.964551	-0.248067	0.840363
C69	C	0.917607	-0.294998	0.799049
C70	C	0.883978	-0.328612	0.840302
C71	C	1.024820	-0.187821	0.964231
C72	C	1.058445	-0.154207	0.922985
C73	C	1.045123	-0.167522	0.840424
C74	C	0.998179	-0.214452	0.799111
C75	C	1.078752	-0.133907	0.799172
C76	C	1.065433	-0.147225	0.716612
C77	C	0.984860	-0.227770	0.716551
H78	H	0.746169	-0.300058	0.472681
H79	H	0.995794	-0.216837	1.080380
F80	F	0.587164	-0.175193	0.277023
F81	F	1.070897	-0.456014	0.485700
F82	F	0.871276	-0.890813	0.276801
F83	F	0.219920	-0.307948	0.485549
H84	H	0.345361	-0.299945	0.472867
H85	H	1.058842	-0.585549	0.473081
H86	H	1.035665	-0.176981	1.031457
H87	H	0.716675	-0.183266	0.289583
H88	H	0.626914	-0.300018	0.472741
H89	H	0.196604	-0.183132	0.289816
H90	H	0.883210	-0.496147	0.289378
H91	H	1.096672	-0.115997	0.956629
H92	H	1.058965	-0.867115	0.473131
F93	F	0.934888	-0.277715	0.672584
H94	H	1.092813	-0.119852	0.683028
F95	F	0.813700	-0.398853	0.920141
H96	H	0.883267	-0.615414	0.289403
F97	F	0.322049	-0.175121	0.277139
F98	F	1.128721	-0.083967	0.843144
F99	F	0.841205	-0.371361	1.090568
F100	F	0.871332	-1.026514	0.276826
F101	F	1.071105	-0.992535	0.485826
H102	H	0.906766	-0.305842	0.731824
F103	F	0.834006	-0.378557	0.796334
