data_functionalizedCrystal
_audit_creation_method	'MofGen! by Chris Wilmer'
_symmetry_space_group_name_H-M	'P1'
_symmetry_Int_Tables_number	1
_symmetry_cell_setting	triclinic
loop_
_symmetry_equiv_pos_as_xyz
  x,y,z
_cell_length_a	10.685976
_cell_length_b	10.686285
_cell_length_c	10.685910
_cell_angle_alpha	99.056612
_cell_angle_beta	90.327767
_cell_angle_gamma	81.631153
loop_
_atom_site_label
_atom_site_type_symbol
_atom_site_fract_x
_atom_site_fract_y
_atom_site_fract_z
Zn1	Zn	2.015612	-0.617612	0.511259
Zn2	Zn	2.015578	-0.846081	0.282768
Zn3	Zn	1.789628	-0.615128	0.317834
Zn4	Zn	1.819646	-0.813553	0.511268
O5	O	1.910116	-0.723093	0.405782
O6	O	2.192181	-0.662572	0.466271
O7	O	1.973029	-0.828018	0.110843
O8	O	1.807057	-0.436801	0.358163
O9	O	2.192156	-0.830427	0.298400
O10	O	1.973087	-0.438626	0.500273
O11	O	1.807024	-0.658338	0.136605
O12	O	1.617037	-0.626796	0.358172
O13	O	1.858219	-0.774988	0.687844
O14	O	1.639091	-0.772578	0.500287
O15	O	2.002194	-0.631031	0.687838
O16	O	2.002136	-1.020423	0.298408
O17	O	1.858185	-0.996524	0.466286
C18	C	1.582281	-0.695889	0.433036
C19	C	1.442036	-0.684279	0.444722
C20	C	1.933450	-1.054798	0.378567
C21	C	1.943551	-1.196709	0.366957
C22	C	2.239232	-0.750405	0.378423
C23	C	2.379482	-0.762044	0.366764
C24	C	1.933559	-0.699658	0.734906
C25	C	1.943548	-0.689671	0.875158
C26	C	1.886728	-0.390094	0.433128
C27	C	1.876761	-0.248190	0.444782
C28	C	1.886757	-0.746465	1.077938
C29	C	1.876764	-0.756448	0.937686
H30	H	1.388300	-0.608822	0.520414
C31	C	1.452067	-0.864001	0.264512
H32	H	1.394018	-0.911235	0.217180
H33	H	1.496114	-0.823201	0.209389
H34	H	1.510839	-0.920486	0.303897
H35	H	1.811945	-0.821268	0.883914
H36	H	2.008455	-1.261208	0.291432
H37	H	1.811852	-1.183700	0.520295
C38	C	2.031122	-0.602122	0.947781
H39	H	2.026571	-0.606666	1.035681
H40	H	2.115696	-0.629358	0.917657
H41	H	2.005108	-0.516317	0.934829
