data_functionalizedCrystal
_audit_creation_method	'MofGen! by Chris Wilmer'
_symmetry_space_group_name_H-M	'P1'
_symmetry_Int_Tables_number	1
_symmetry_cell_setting	triclinic
loop_
_symmetry_equiv_pos_as_xyz
  x,y,z
_cell_length_a	23.532355
_cell_length_b	14.519709
_cell_length_c	12.996460
_cell_angle_alpha	90.007090
_cell_angle_beta	90.000230
_cell_angle_gamma	96.746178
loop_
_atom_site_label
_atom_site_type_symbol
_atom_site_fract_x
_atom_site_fract_y
_atom_site_fract_z
O1	O	0.755784	-0.111723	-0.085429
O2	O	1.255784	0.388277	0.414571
O3	O	0.589989	-0.127971	-0.085462
O4	O	1.089989	0.372029	0.414538
O5	O	0.677282	0.014445	-0.085436
O6	O	1.177282	0.514445	0.414564
O7	O	0.668491	-0.254139	-0.085456
O8	O	1.168491	0.245861	0.414544
O9	O	0.677273	0.014452	0.085698
O10	O	1.177273	0.514452	0.585698
O11	O	0.589980	-0.127963	0.085672
O12	O	1.089980	0.372037	0.585672
O13	O	0.755774	-0.111715	0.085705
O14	O	1.255774	0.388285	0.585705
Cu15	Cu	0.672876	-0.119839	0.101314
Cu16	Cu	1.172876	0.380161	0.601314
Cu17	Cu	0.672887	-0.119848	-0.101072
Cu18	Cu	1.172887	0.380152	0.398928
O19	O	0.668482	-0.254131	0.085678
O20	O	1.168482	0.245869	0.585678
C21	C	0.568766	-0.127561	0.000101
C22	C	1.068766	0.372439	0.500101
C23	C	0.505542	-0.126340	0.000088
C24	C	1.005542	0.373660	0.500088
C25	C	0.113489	-0.118663	0.093417
C26	C	0.613489	0.381337	0.593417
C27	C	0.054084	-0.117502	0.093421
C28	C	0.554084	0.382498	0.593421
O29	O	0.023358	-0.116866	0.172755
O30	O	0.523358	0.383134	0.672755
N31	N	0.024378	-0.116930	0.000136
N32	N	0.524378	0.383070	0.500136
C33	C	0.054080	-0.117510	-0.093158
C34	C	0.554080	0.382490	0.406842
O35	O	0.023358	-0.116917	-0.172504
O36	O	0.523358	0.383083	0.327496
C37	C	0.113484	-0.118666	-0.093161
C38	C	0.613484	0.381334	0.406839
C39	C	0.143187	-0.119247	0.000129
C40	C	0.643187	0.380753	0.500129
C41	C	0.143191	-0.119244	0.186700
C42	C	0.643191	0.380756	0.686700
C43	C	0.202592	-0.120407	0.186696
C44	C	0.702592	0.379593	0.686696
C45	C	0.232290	-0.120990	0.093408
C46	C	0.732290	0.379010	0.593408
C47	C	0.202587	-0.120410	0.000125
C48	C	0.702587	0.379590	0.500125
C49	C	0.143186	-0.119239	-0.186455
C50	C	0.643186	0.380761	0.313545
C51	C	0.202595	-0.120394	-0.186450
C52	C	0.702595	0.379606	0.313550
C53	C	0.232297	-0.120975	-0.093159
C54	C	0.732297	0.379025	0.406841
C55	C	0.291686	-0.122157	-0.093167
C56	C	0.791686	0.377843	0.406833
N57	N	0.321392	-0.122729	0.000117
N58	N	0.821392	0.377271	0.500117
C59	C	0.291694	-0.122145	0.093405
C60	C	0.791694	0.377855	0.593405
C61	C	-0.070672	-0.115083	-0.093145
C62	C	0.429328	0.384917	0.406855
C63	C	-0.130076	-0.113935	-0.093143
C64	C	0.369924	0.386065	0.406857
C65	C	-0.130068	-0.113924	0.093437
C66	C	0.369932	0.386076	0.593437
C67	C	-0.070664	-0.115079	0.093434
C68	C	0.429336	0.384921	0.593434
C69	C	-0.040966	-0.115655	0.000140
C70	C	0.459034	0.384345	0.500140
C71	C	0.416439	-0.124589	0.093389
C72	C	0.916439	0.375411	0.593389
C73	C	0.475844	-0.125757	0.093376
C74	C	0.975844	0.374243	0.593376
C75	C	0.475831	-0.125762	-0.093203
C76	C	0.975831	0.374238	0.406797
C77	C	0.416431	-0.124600	-0.093191
C78	C	0.916431	0.375400	0.406809
C79	C	0.386736	-0.124010	0.000113
C80	C	0.886736	0.375990	0.500113
O81	O	0.322449	-0.122790	-0.172461
O82	O	0.822449	0.377210	0.327539
O83	O	0.322424	-0.122727	0.172737
O84	O	0.822424	0.377273	0.672737
C85	C	0.676868	0.048803	0.000131
C86	C	1.176868	0.548803	0.500131
C87	C	0.675640	0.151170	0.000132
C88	C	1.175640	0.651170	0.500132
C89	C	0.776997	-0.112125	0.000140
C90	C	1.276997	0.387875	0.500140
C91	C	0.840222	-0.113346	0.000145
C92	C	1.340222	0.386654	0.500145
C93	C	0.668896	-0.288490	0.000109
C94	C	1.168896	0.211510	0.500109
C95	C	0.670124	-0.390856	0.000102
C96	C	1.170124	0.109144	0.500102
N97	N	0.672873	-0.119832	0.243661
N98	N	1.172873	0.380168	0.743661
C99	C	0.671120	0.526011	0.000104
C100	C	1.171120	1.026011	0.500104
C101	C	0.672375	0.421718	0.000112
C102	C	1.172375	0.921718	0.500112
C103	C	0.673380	0.338594	0.000119
C104	C	1.173380	0.838594	0.500119
C105	C	0.674635	0.234294	0.000125
C106	C	1.174635	0.734294	0.500125
N107	N	0.672895	-0.119847	-0.243419
N108	N	1.172895	0.380153	0.256581
C109	C	0.672886	-0.119849	0.663475
C110	C	1.172886	0.380151	1.163475
C111	C	0.672881	-0.119847	0.546670
C112	C	1.172881	0.380153	1.046670
C113	C	0.672880	-0.119841	0.453572
C114	C	1.172880	0.380159	0.953572
C115	C	0.672874	-0.119838	0.336759
C116	C	1.172874	0.380162	0.836759
H117	H	0.119018	-0.118767	0.262670
H118	H	0.619018	0.381233	0.762670
H119	H	0.392245	-0.124142	-0.169156
H120	H	0.892245	0.375858	0.330844
F121	F	0.111588	-0.118619	-0.285750
F122	F	0.611588	0.381381	0.214250
F123	F	0.507452	-0.126378	0.192673
F124	F	1.007452	0.373622	0.692673
F125	F	0.384844	-0.123960	0.192694
F126	F	0.884844	0.376040	0.692694
H127	H	0.226771	-0.120863	-0.262423
H128	H	0.726771	0.379137	0.237577
H129	H	-0.154258	-0.113448	0.169397
H130	H	0.345742	0.386552	0.669397
F131	F	0.507449	-0.126380	-0.192482
F132	F	1.007449	0.373620	0.307518
H133	H	-0.046484	-0.115553	0.169399
H134	H	0.453516	0.384447	0.669399
F135	F	-0.161682	-0.113333	-0.192436
F136	F	0.338318	0.386667	0.307564
F137	F	0.234196	-0.121021	0.285989
F138	F	0.734196	0.378979	0.785989
H139	H	-0.046497	-0.115560	-0.169121
H140	H	0.453503	0.384440	0.330879
