data_functionalizedCrystal
_audit_creation_method	'MofGen! by Chris Wilmer'
_symmetry_space_group_name_H-M	'P1'
_symmetry_Int_Tables_number	1
_symmetry_cell_setting	triclinic
loop_
_symmetry_equiv_pos_as_xyz
  x,y,z
_cell_length_a	14.908571
_cell_length_b	18.050589
_cell_length_c	14.908694
_cell_angle_alpha	93.272134
_cell_angle_beta	83.592472
_cell_angle_gamma	86.724558
loop_
_atom_site_label
_atom_site_type_symbol
_atom_site_fract_x
_atom_site_fract_y
_atom_site_fract_z
Zn1	Zn	1.413277	-0.390979	-0.591527
Zn2	Zn	1.404426	-0.507570	-0.440167
Zn3	Zn	1.253181	-0.375789	-0.431461
Zn4	Zn	1.261858	-0.507512	-0.582766
O5	O	1.333185	-0.445463	-0.511480
O6	O	1.538769	-0.412826	-0.578759
O7	O	1.377028	-0.483756	-0.312347
O8	O	1.274492	-0.273884	-0.452717
O9	O	1.532266	-0.498485	-0.467556
O10	O	1.392113	-0.285044	-0.570317
O11	O	1.265909	-0.386937	-0.305950
O12	O	1.127666	-0.386881	-0.444222
O13	O	1.289279	-0.498387	-0.710594
O14	O	1.134041	-0.483658	-0.555385
O15	O	1.400526	-0.412770	-0.717030
O16	O	1.385441	-0.611482	-0.459061
O17	O	1.280696	-0.611440	-0.563827
C18	C	1.098011	-0.433615	-0.497908
C19	C	0.997403	-0.428566	-0.492124
C20	C	0.815028	-0.519991	-0.596852
C21	C	0.720498	-0.515249	-0.591420
C22	C	0.713813	-0.414338	-0.475833
C23	C	0.808342	-0.419080	-0.481265
C24	C	0.858947	-0.471909	-0.541776
C25	C	0.953478	-0.476653	-0.547203
C26	C	0.946791	-0.375739	-0.431621
C27	C	0.852261	-0.370997	-0.426189
C28	C	1.333075	-0.638408	-0.511459
C29	C	1.333113	-0.720957	-0.511485
C30	C	1.276211	-0.920414	-0.568439
C31	C	1.249382	-0.964597	-0.484573
C32	C	1.333202	-0.872093	-0.511502
C33	C	1.360076	-0.974993	-0.595380
C34	C	1.333288	-1.018083	-0.511525
C35	C	1.306328	-0.915185	-0.427589
C36	C	1.417063	-0.925581	-0.538454
C37	C	1.390262	-0.969741	-0.454533
C38	C	1.333151	-0.787991	-0.511489
C39	C	1.333339	-1.102182	-0.511528
C40	C	1.569279	-0.457356	-0.525106
C41	C	1.669887	-0.462425	-0.530912
C42	C	1.346858	-0.457267	-0.747573
C43	C	1.352684	-0.462297	-0.848182
C44	C	1.333322	-0.251765	-0.511523
C45	C	1.333380	-0.169223	-0.511541
C46	C	1.247903	-0.370933	-1.030577
C47	C	1.253374	-0.375656	-1.125107
C48	C	1.369092	-0.476471	-1.131776
C49	C	1.363621	-0.471747	-1.037245
C50	C	1.303025	-0.418976	-0.986649
C51	C	1.297559	-0.414249	-0.892117
C52	C	1.413272	-0.515066	-0.898787
C53	C	1.418743	-0.519790	-0.993317
C54	C	1.319619	-0.433653	-0.276309
C55	C	1.313968	-0.428423	-0.175710
H56	H	0.672595	-0.371323	-0.426574
H57	H	1.438491	-0.991262	-0.406334
H58	H	1.382772	-1.001090	-0.666306
Br59	Br	0.783577	-0.299300	-0.344077
H60	H	1.458160	-0.554184	-0.863011
H61	H	0.982559	-0.336589	-0.386771
H62	H	1.227936	-0.898748	-0.616512
H63	H	0.684743	-0.554401	-0.636271
Br64	Br	1.022154	-0.548352	-0.629318
Br65	Br	1.131240	-0.993447	-0.446580
H66	H	1.208488	-0.336535	-1.160870
H67	H	0.856230	-0.563010	-0.646118
Br68	Br	1.215328	-0.342628	-0.823450
Br69	Br	1.268368	-0.871836	-0.309332
Br70	Br	1.500970	-0.591409	-1.061991
H71	H	1.418414	-0.519444	-1.172987
H72	H	1.487928	-0.908256	-0.561270
Br73	Br	1.165682	-0.299307	-0.961906
