data_functionalizedCrystal
_audit_creation_method	'MofGen! by Chris Wilmer'
_symmetry_space_group_name_H-M	'P1'
_symmetry_Int_Tables_number	1
_symmetry_cell_setting	triclinic
loop_
_symmetry_equiv_pos_as_xyz
  x,y,z
_cell_length_a	14.519709
_cell_length_b	14.971486
_cell_length_c	13.448316
_cell_angle_alpha	90.001801
_cell_angle_beta	89.992453
_cell_angle_gamma	96.352863
loop_
_atom_site_label
_atom_site_type_symbol
_atom_site_fract_x
_atom_site_fract_y
_atom_site_fract_z
O1	O	0.120184	-1.187015	-0.082580
O2	O	0.134576	-0.926623	-0.082607
O3	O	-0.006863	-1.063723	-0.082584
O4	O	0.261623	-1.049915	-0.082603
O5	O	-0.006871	-1.063706	0.082800
O6	O	0.134567	-0.926606	0.082777
O7	O	0.120175	-1.186998	0.082804
Cu8	Cu	0.127371	-1.056800	0.097891
Cu9	Cu	0.127381	-1.056820	-0.097694
O10	O	0.261614	-1.049898	0.082781
C11	C	0.133928	-0.893289	0.000082
C12	C	0.131999	-0.793991	0.000071
C13	C	-0.041226	-1.063071	0.000108
C14	C	-0.143606	-1.061142	0.000109
C15	C	0.120823	-1.220331	0.000113
C16	C	0.122752	-1.319630	0.000117
C17	C	-0.518498	-1.054043	0.000082
C18	C	-0.414191	-1.056015	0.000090
C19	C	-0.331055	-1.057593	0.000096
C20	C	-0.226742	-1.059564	0.000102
C21	C	0.295978	-1.050550	0.000087
C22	C	0.398358	-1.052478	0.000080
N23	N	0.127363	-1.056792	0.235456
C24	C	0.215091	-0.736812	0.000067
C25	C	0.213273	-0.643512	0.000082
C26	C	0.128363	-0.607392	0.000094
C27	C	0.045265	-0.664578	0.000102
C28	C	0.047084	-0.757876	0.000094
C29	C	0.041480	-0.470113	0.000116
C30	C	0.039661	-0.376808	0.000122
C31	C	0.207669	-0.355749	0.000104
C32	C	0.209488	-0.449047	0.000096
C33	C	0.126390	-0.506227	0.000101
N34	N	0.127381	-1.056835	-0.235258
C35	C	0.064759	-1.117519	0.287506
C36	C	0.064759	-1.117525	0.391610
C37	C	0.127366	-1.056807	0.443660
C38	C	0.189973	-0.996074	0.391602
C39	C	0.189968	-0.996065	0.287501
C40	C	0.189979	-0.996099	0.608582
C41	C	0.189985	-0.996109	0.712691
C42	C	0.064769	-1.117559	0.712691
C43	C	0.064765	-1.117549	0.608590
C44	C	0.127373	-1.056817	0.556539
H45	H	0.284234	-0.766213	0.000056
H46	H	0.240945	-0.946614	0.245122
H47	H	0.013781	-1.166966	0.245134
H48	H	0.013782	-1.166972	0.433989
C49	C	-0.004101	-1.184338	0.551329
C50	C	-0.109125	-1.182678	0.565653
C51	C	-0.177992	-1.249465	0.508390
C52	C	-0.141837	-1.317912	0.436803
C53	C	-0.036808	-1.319574	0.422476
C54	C	0.032060	-1.252787	0.479739
H55	H	-0.135894	-1.132008	0.618648
H56	H	-0.255742	-1.248234	0.518996
H57	H	-0.192817	-1.367351	0.394414
H58	H	-0.010039	-1.370244	0.369480
H59	H	0.109809	-1.254018	0.469132
H60	H	-0.020578	-0.804431	0.000097
C61	C	-0.004103	-1.184361	0.769945
C62	C	-0.004105	-1.184369	0.884452
C63	C	-0.072970	-1.251172	0.941713
C64	C	-0.141833	-1.317967	0.884466
C65	C	-0.141834	-1.317962	0.769952
C66	C	-0.072969	-1.251159	0.712692
H67	H	0.046875	-1.134921	0.926836
H68	H	-0.072969	-1.251175	1.026484
H69	H	-0.192812	-1.367418	0.926854
H70	H	-0.192814	-1.367410	0.727569
H71	H	-0.072970	-1.251156	0.627921
H72	H	0.240946	-0.946632	0.433988
C73	C	0.258849	-0.929312	0.769944
C74	C	0.327703	-0.862503	0.712687
C75	C	0.396568	-0.795705	0.769937
C76	C	0.396579	-0.795714	0.884445
C77	C	0.327722	-0.862525	0.941708
C78	C	0.258857	-0.929324	0.884458
H79	H	0.327697	-0.862494	0.627916
H80	H	0.447540	-0.746247	0.727547
H81	H	0.447557	-0.746265	0.926825
H82	H	0.327728	-0.862534	1.026479
H83	H	0.207885	-0.978782	0.926848
H84	H	0.240958	-0.946641	0.566206
C85	C	0.304672	-0.580611	0.000071
C86	C	0.326527	-0.513580	0.085955
C87	C	0.417929	-0.450677	0.085944
C88	C	0.487478	-0.454805	0.000050
C89	C	0.465625	-0.521839	-0.085840
C90	C	0.374222	-0.584742	-0.085830
H91	H	0.275042	-0.510521	0.149544
H92	H	0.434106	-0.401054	0.149527
H93	H	0.555139	-0.408241	0.000043
H94	H	0.517110	-0.524898	-0.149430
H95	H	0.358046	-0.634365	-0.149412
C96	C	0.299081	-0.292858	0.000107
C97	C	0.368634	-0.296991	-0.085782
C98	C	0.460043	-0.234098	-0.085783
C99	C	0.481900	-0.167072	0.000106
C100	C	0.412346	-0.162937	0.086002
C101	C	0.320936	-0.225830	0.086002
H102	H	0.352456	-0.346610	-0.149368
H103	H	0.511532	-0.237160	-0.149369
H104	H	0.549567	-0.120515	0.000105
H105	H	0.428524	-0.113318	0.149587
H106	H	0.269448	-0.222768	0.149588
C107	C	-0.049927	-0.533014	0.000120
C108	C	-0.119487	-0.528882	0.086002
C109	C	-0.210890	-0.591783	0.086001
C110	C	-0.232734	-0.658818	0.000118
C111	C	-0.163172	-0.662953	-0.085771
C112	C	-0.071768	-0.600051	-0.085770
H113	H	-0.103319	-0.479256	0.149584
H114	H	-0.262385	-0.588722	0.149582
H115	H	-0.300396	-0.705382	0.000117
H116	H	-0.179340	-0.712578	-0.149353
H117	H	-0.020274	-0.603113	-0.149351
H118	H	-0.029481	-0.347403	0.000133
H119	H	0.278629	-0.478453	0.000076
H120	H	-0.023871	-0.635162	0.000126
