data_functionalizedCrystal
_audit_creation_method	'MofGen! by Chris Wilmer'
_symmetry_space_group_name_H-M	'P1'
_symmetry_Int_Tables_number	1
_symmetry_cell_setting	triclinic
loop_
_symmetry_equiv_pos_as_xyz
  x,y,z
_cell_length_a	10.540539
_cell_length_b	14.519709
_cell_length_c	13.596369
_cell_angle_alpha	89.999709
_cell_angle_beta	89.996161
_cell_angle_gamma	95.897182
loop_
_atom_site_label
_atom_site_type_symbol
_atom_site_fract_x
_atom_site_fract_y
_atom_site_fract_z
O1	O	0.166400	-1.224765	-0.081658
O2	O	0.499733	-0.891432	0.251675
O3	O	0.833066	-0.558098	0.585008
O4	O	0.185995	-0.956394	-0.081688
O5	O	0.519329	-0.623060	0.251645
O6	O	0.852662	-0.289727	0.584979
O7	O	-0.008572	-1.096702	-0.081671
O8	O	0.324762	-0.763369	0.251662
O9	O	0.658095	-0.430035	0.584995
O10	O	0.360966	-1.084457	-0.081675
O11	O	0.694300	-0.751123	0.251658
O12	O	1.027633	-0.417790	0.584992
O13	O	-0.008582	-1.096688	0.081912
O14	O	0.324751	-0.763355	0.415245
O15	O	0.658085	-0.430021	0.748578
O16	O	0.185985	-0.956380	0.081895
O17	O	0.519318	-0.623046	0.415228
O18	O	0.852652	-0.289713	0.748562
O19	O	0.166389	-1.224751	0.081924
O20	O	0.499723	-0.891418	0.415258
O21	O	0.833056	-0.558084	0.748591
Zn22	Zn	0.176185	-1.090563	0.107882
Zn23	Zn	0.509519	-0.757230	0.441215
Zn24	Zn	0.842852	-0.423896	0.774549
Zn25	Zn	0.176199	-1.090582	-0.107646
Zn26	Zn	0.509532	-0.757248	0.225688
Zn27	Zn	0.842866	-0.423915	0.559021
O28	O	0.360956	-1.084442	0.081908
O29	O	0.694289	-0.751109	0.415241
O30	O	1.027623	-0.417776	0.748574
C31	C	0.185077	-0.922022	0.000100
C32	C	0.518410	-0.588689	0.333433
C33	C	0.851743	-0.255355	0.666766
C34	C	0.182340	-0.819626	0.000088
C35	C	0.515674	-0.486293	0.333422
C36	C	0.849007	-0.152959	0.666755
C37	C	-0.055870	-1.095777	0.000118
C38	C	0.277463	-0.762443	0.333452
C39	C	0.610796	-0.429110	0.666785
C40	C	-0.196790	-1.093029	0.000113
C41	C	0.136543	-0.759696	0.333446
C42	C	0.469876	-0.426363	0.666779
C43	C	0.167308	-1.259123	0.000135
C44	C	0.500641	-0.925789	0.333468
C45	C	0.833974	-0.592456	0.666801
C46	C	0.170044	-1.361519	0.000140
C47	C	0.503378	-1.028185	0.333473
C48	C	0.836711	-0.694852	0.666806
C49	C	-0.379142	-0.987750	-0.000266
C50	C	-0.045809	-0.654416	0.333067
C51	C	0.287524	-0.321083	0.666401
C52	C	-0.232553	-0.990535	0.000102
C53	C	0.100781	-0.657202	0.333436
C54	C	0.434114	-0.323868	0.666769
C55	C	-0.258957	-1.142346	0.093532
C56	C	0.074376	-0.809013	0.426865
C57	C	0.407709	-0.475679	0.760199
C58	C	-0.405466	-1.138848	0.093610
C59	C	-0.072133	-0.805515	0.426944
C60	C	0.261200	-0.472181	0.760277
C61	C	-0.405994	-1.140949	-0.092414
C62	C	-0.072661	-0.807615	0.240919
C63	C	0.260673	-0.474282	0.574253
C64	C	-0.259022	-1.141893	-0.093649
C65	C	0.074312	-0.808559	0.239685
C66	C	0.407645	-0.475226	0.573018
C67	C	0.408255	-1.085368	0.000116
C68	C	0.741588	-0.752035	0.333449
C69	C	1.074922	-0.418701	0.666783
C70	C	0.549175	-1.088115	0.000115
C71	C	0.882508	-0.754782	0.333449
C72	C	1.215842	-0.421449	0.666782
N73	N	0.176175	-1.090557	0.254974
N74	N	0.509509	-0.757224	0.588307
N75	N	0.842842	-0.423890	0.921640
C76	C	0.172265	-0.444676	0.000133
C77	C	0.505599	-0.111342	0.333466
C78	C	0.838932	0.221991	0.666800
C79	C	0.175063	-0.548999	0.000120
C80	C	0.508397	-0.215665	0.333454
C81	C	0.841730	0.117668	0.666787
C82	C	0.177303	-0.632148	0.000110
C83	C	0.510636	-0.298814	0.333443
C84	C	0.843969	0.034519	0.666776
C85	C	0.180101	-0.736477	0.000099
C86	C	0.513434	-0.403144	0.333432
C87	C	0.846768	-0.069811	0.666765
N88	N	0.176199	-1.090595	-0.254737
N89	N	0.509532	-0.757261	0.078596
N90	N	0.842866	-0.423928	0.411929
C91	C	0.176200	-1.090580	0.656265
C92	C	0.509534	-0.757247	0.989598
C93	C	0.842867	-0.423914	1.322931
C94	C	0.176198	-1.090571	0.544613
C95	C	0.509531	-0.757238	0.877947
C96	C	0.842864	-0.423904	1.211280
C97	C	0.176189	-1.090569	0.455623
C98	C	0.509522	-0.757236	0.788956
C99	C	0.842856	-0.423902	1.122290
C100	C	0.176184	-1.090559	0.343964
C101	C	0.509518	-0.757226	0.677298
C102	C	0.842851	-0.423892	1.010631
H103	H	-0.189549	-0.951729	-0.066865
H104	H	0.143784	-0.618396	0.266469
H105	H	0.477118	-0.285063	0.599802
O106	O	-0.442348	-1.090545	0.186091
O107	O	-0.109015	-0.757212	0.519425
O108	O	0.224319	-0.423878	0.852758
H109	H	-0.355579	-1.069896	0.230335
H110	H	-0.022245	-0.736562	0.563669
H111	H	0.311088	-0.403229	0.897002
O112	O	-0.227955	-1.240879	-0.101115
O113	O	0.105378	-0.907546	0.232218
O114	O	0.438711	-0.574212	0.565552
H115	H	-0.317726	-1.288082	-0.100193
H116	H	0.015607	-0.954749	0.233141
H117	H	0.348941	-0.621415	0.566474
O118	O	-0.418608	-0.934327	0.087966
O119	O	-0.085275	-0.600994	0.421299
O120	O	0.248059	-0.267660	0.754632
H121	H	-0.367464	-0.863588	0.086982
H122	H	-0.034131	-0.530254	0.420315
H123	H	0.299202	-0.196921	0.753649
H124	H	-0.216013	-1.108076	0.163044
H125	H	0.117321	-0.774743	0.496377
H126	H	0.450654	-0.441410	0.829710
O127	O	-0.230353	-1.242045	0.098160
O128	O	0.102980	-0.908711	0.431494
O129	O	0.436313	-0.575378	0.764827
H130	H	-0.269165	-1.279239	0.031628
H131	H	0.064168	-0.945905	0.364961
H132	H	0.397502	-0.612572	0.698294
H133	H	-0.437204	-1.107782	-0.163219
H134	H	-0.103871	-0.774449	0.170114
H135	H	0.229463	-0.441116	0.503447
O136	O	-0.416497	-0.934117	-0.088994
O137	O	-0.083164	-0.600784	0.244339
O138	O	0.250169	-0.267450	0.577673
H139	H	-0.391370	-0.970466	-0.156985
H140	H	-0.058037	-0.637133	0.176348
H141	H	0.275296	-0.303800	0.509681
O142	O	-0.470019	-1.236481	0.099259
O143	O	-0.136686	-0.903147	0.432592
O144	O	0.196648	-0.569814	0.765925
H145	H	-0.396551	-1.285982	0.101930
H146	H	-0.063218	-0.952649	0.435263
H147	H	0.270116	-0.619316	0.768597
O148	O	-0.204307	-1.094171	-0.185202
O149	O	0.129026	-0.760837	0.148131
O150	O	0.462360	-0.427504	0.481464
H151	H	-0.133080	-1.035896	-0.164028
H152	H	0.200253	-0.702562	0.169306
H153	H	0.533586	-0.369229	0.502639
O154	O	-0.469554	-1.239009	-0.093252
O155	O	-0.136221	-0.905676	0.240082
O156	O	0.197113	-0.572343	0.573415
H157	H	-0.532775	-1.250109	-0.028125
H158	H	-0.199442	-0.916776	0.305208
H159	H	0.133892	-0.583442	0.638542
H160	H	-0.190402	-0.951446	0.067172
H161	H	0.142931	-0.618112	0.400506
H162	H	0.476265	-0.284779	0.733839
