data_functionalizedCrystal
_audit_creation_method	'MofGen! by Chris Wilmer'
_symmetry_space_group_name_H-M	'P1'
_symmetry_Int_Tables_number	1
_symmetry_cell_setting	triclinic
loop_
_symmetry_equiv_pos_as_xyz
  x,y,z
_cell_length_a	17.038272
_cell_length_b	14.044220
_cell_length_c	15.500361
_cell_angle_alpha	86.905595
_cell_angle_beta	86.961141
_cell_angle_gamma	87.849783
loop_
_atom_site_label
_atom_site_type_symbol
_atom_site_fract_x
_atom_site_fract_y
_atom_site_fract_z
O1	O	-1.048513	0.211123	-0.071831
O2	O	-0.820651	0.207837	-0.071856
O3	O	-0.931162	0.071219	-0.071840
O4	O	-0.938002	0.347741	-0.071847
O5	O	-0.937832	0.062955	0.072046
O6	O	-0.827321	0.199573	0.072030
O7	O	-1.055183	0.202859	0.072056
Cu8	Cu	-0.941861	0.200461	0.085181
Cu9	Cu	-0.933973	0.210235	-0.084982
O10	O	-0.944672	0.339477	0.072039
C11	C	-0.794649	0.200716	0.000084
C12	C	-0.707231	0.191797	0.000074
C13	C	-0.931503	0.031532	0.000102
C14	C	-0.922571	-0.074414	0.000098
C15	C	-1.081185	0.209980	0.000114
C16	C	-1.168602	0.218899	0.000118
C17	C	-0.662846	0.273686	0.000072
C18	C	-0.580709	0.265299	0.000085
C19	C	-0.542959	0.175023	0.000092
C20	C	-0.587351	0.093129	0.000096
C21	C	-0.669486	0.101516	0.000090
C22	C	-0.295129	0.145392	0.000116
C23	C	-0.212988	0.137011	0.000119
C24	C	-0.206352	0.309182	0.000110
C25	C	-0.288489	0.317562	0.000098
C26	C	-0.332874	0.235667	0.000107
C27	C	-0.459002	0.166448	0.000102
C28	C	-0.416829	0.244242	0.000103
C29	C	-0.944331	0.379165	0.000095
C30	C	-0.953263	0.485111	0.000093
N31	N	-0.947415	0.193587	0.204864
C32	C	-0.969591	0.679088	0.000099
C33	C	-0.906246	0.731614	0.000093
C34	C	-0.915331	0.839550	0.000096
C35	C	-0.960507	0.571143	0.000096
N36	N	-0.928424	0.217102	-0.204665
C37	C	-0.900577	0.251453	0.250155
C38	C	-0.904800	0.246252	0.340727
C39	C	-0.955857	0.183180	0.386006
C40	C	-1.002701	0.125313	0.340708
C41	C	-0.998482	0.130519	0.250138
C42	C	-0.971049	0.164440	0.659468
C43	C	-0.975263	0.159236	0.750044
C44	C	-0.877362	0.280177	0.750056
C45	C	-0.873144	0.285374	0.659485
C46	C	-0.919991	0.227510	0.614195
C47	C	-0.960173	0.177861	0.478584
C48	C	-0.915679	0.232835	0.521618
H49	H	-0.693575	0.347198	0.000066
H50	H	-1.030642	0.715180	0.000109
Cl51	Cl	-0.350917	0.042437	0.000126
H52	H	-0.845191	0.695520	0.000086
Cl53	Cl	-0.539894	-0.020362	0.000111
Cl54	Cl	-0.836383	0.330742	0.193243
Cl55	Cl	-0.725286	-0.001434	0.000095
Cl56	Cl	-0.851497	0.312126	0.464696
Cl57	Cl	-0.818476	0.352920	0.806995
Cl58	Cl	-1.029937	0.091695	0.602539
H59	H	-0.866661	0.293371	0.377602
Cl60	Cl	-1.057370	0.057774	0.193202
H61	H	-1.016842	0.107872	0.786906
H62	H	-0.831569	0.336731	0.622620
Cl63	Cl	-0.335940	0.431056	0.000083
H64	H	-0.447569	0.317744	0.000102
Cl65	Cl	-0.524913	0.368250	0.000078
Cl66	Cl	-0.411538	0.052962	0.000107
H67	H	-1.044277	0.073962	0.377580
H68	H	-1.001743	0.126505	0.515458
H69	H	-0.170205	0.375856	0.000104
H70	H	-0.182255	0.063494	0.000124
