data_functionalizedCrystal
_audit_creation_method	'MofGen! by Chris Wilmer'
_symmetry_space_group_name_H-M	'P1'
_symmetry_Int_Tables_number	1
_symmetry_cell_setting	triclinic
loop_
_symmetry_equiv_pos_as_xyz
  x,y,z
_cell_length_a	17.019311
_cell_length_b	10.489741
_cell_length_c	9.565339
_cell_angle_alpha	89.999424
_cell_angle_beta	93.876974
_cell_angle_gamma	96.033163
loop_
_atom_site_label
_atom_site_type_symbol
_atom_site_fract_x
_atom_site_fract_y
_atom_site_fract_z
O1	O	1.047585	-0.162534	0.242377
O2	O	0.818040	-0.183245	0.214745
O3	O	0.938036	0.012795	0.229181
O4	O	0.927589	-0.358574	0.227940
O5	O	0.938041	0.012790	-0.003338
O6	O	0.818045	-0.183251	-0.017775
O7	O	1.047591	-0.162539	0.009857
Zn8	Zn	0.932819	-0.172896	-0.040876
Zn9	Zn	0.932812	-0.172889	0.265478
O10	O	0.927595	-0.358580	-0.004579
C11	C	0.788649	-0.182461	0.094947
C12	C	0.701067	-0.180101	0.084404
C13	C	0.205712	-0.166796	0.018418
C14	C	0.288006	-0.169013	0.028327
C15	C	0.329150	-0.170109	0.160031
C16	C	0.287996	-0.169001	0.281832
C17	C	0.205704	-0.166792	0.271922
C18	C	0.577620	-0.176785	0.196295
C19	C	0.659919	-0.178989	0.206196
C20	C	0.659922	-0.179004	-0.047310
C21	C	0.577628	-0.176788	-0.057209
C22	C	0.536481	-0.175686	0.064593
C23	C	0.413268	-0.172372	0.170162
C24	C	0.452365	-0.173433	0.054460
C25	C	0.937250	0.060311	0.112827
C26	C	0.934889	0.201901	0.112546
C27	C	1.076981	-0.163323	0.129659
C28	C	1.164564	-0.165684	0.140211
C29	C	0.928381	-0.406096	0.111778
C30	C	0.930742	-0.547686	0.112069
N31	N	0.932829	-0.172900	-0.249954
C32	C	0.858539	0.268771	0.103365
C33	C	0.894609	0.361491	-0.006937
C34	C	0.894622	0.361471	0.222311
C35	C	0.970990	0.292756	0.002152
C36	C	0.970992	0.292727	0.231502
C37	C	1.007117	0.385420	0.121178
C38	C	0.988341	-0.082244	-0.334441
C39	C	0.916919	-0.057597	-0.436210
C40	C	1.004223	-0.197464	-0.425744
C41	C	0.861371	-0.148197	-0.349676
C42	C	0.948722	-0.288114	-0.339196
C43	C	0.877249	-0.263516	-0.440929
N44	N	0.932808	-0.172874	0.474557
H45	H	0.693433	-0.179903	-0.146474
H46	H	0.830243	-0.340175	-0.487214
H47	H	0.800971	-0.127299	-0.316152
H48	H	0.862304	0.391900	0.315353
H49	H	0.903462	0.039847	-0.478764
H50	H	0.321505	-0.169916	-0.070850
O51	O	0.453161	-0.173260	0.298179
C52	C	0.441374	-0.062286	0.373846
H53	H	0.384395	-0.023867	0.330946
H54	H	0.436690	-0.087035	0.489239
H55	H	0.493506	0.013778	0.362541
H56	H	0.795765	0.218075	0.095693
O57	O	1.009613	0.256285	0.351635
C58	C	1.076544	0.196606	0.318596
H59	H	1.095235	0.229656	0.211107
H60	H	1.127209	0.223777	0.400792
H61	H	1.061309	0.088130	0.317175
O62	O	0.699760	-0.180127	0.334251
C63	C	0.645799	-0.178659	0.439633
H64	H	0.584103	-0.217438	0.395048
H65	H	0.664921	-0.241202	0.530573
H66	H	0.644739	-0.076152	0.478492
O67	O	0.855949	0.397766	-0.127116
C68	C	0.777642	0.337760	-0.136158
H69	H	0.759489	0.310021	-0.026779
H70	H	0.736099	0.406696	-0.184465
H71	H	0.774018	0.248043	-0.204541
O72	O	0.412419	-0.172593	-0.073507
C73	C	0.424240	-0.283527	-0.149213
H74	H	0.441062	-0.361307	-0.073030
H75	H	0.367333	-0.319134	-0.213549
H76	H	0.473881	-0.259844	-0.222279
H77	H	0.172202	-0.165890	0.371099
H78	H	1.069948	0.435889	0.128678
O79	O	1.076292	-0.222392	-0.465677
C80	C	1.127054	-0.238641	-0.345767
H81	H	1.090198	-0.267423	-0.253444
H82	H	1.166550	-0.316848	-0.366812
H83	H	1.165459	-0.144796	-0.320084
H84	H	0.544128	-0.175883	0.295475
H85	H	1.003269	0.262458	-0.090994
O86	O	0.328037	-0.170240	0.409688
C87	C	0.367323	-0.281942	0.422028
H88	H	0.376886	-0.319090	0.313133
H89	H	0.427058	-0.258656	0.482860
H90	H	0.329796	-0.358402	0.480068
O91	O	0.165730	-0.165501	-0.109487
C92	C	0.126415	-0.053828	-0.121808
H93	H	0.157014	0.022684	-0.046204
H94	H	0.128274	-0.016752	-0.233693
H95	H	0.062169	-0.077113	-0.095493
H96	H	1.035241	-0.005540	-0.287910
O97	O	0.964939	-0.404274	-0.288425
C98	C	1.040305	-0.429826	-0.326818
H99	H	1.077212	-0.335719	-0.348556
H100	H	1.071201	-0.481894	-0.237803
H101	H	1.033445	-0.492525	-0.425138
H102	H	0.544136	-0.175868	-0.164455
