data_functionalizedCrystal
_audit_creation_method	'MofGen! by Chris Wilmer'
_symmetry_space_group_name_H-M	'P1'
_symmetry_Int_Tables_number	1
_symmetry_cell_setting	triclinic
loop_
_symmetry_equiv_pos_as_xyz
  x,y,z
_cell_length_a	27.731994
_cell_length_b	27.731996
_cell_length_c	26.210047
_cell_angle_alpha	89.998501
_cell_angle_beta	89.997128
_cell_angle_gamma	82.620961
loop_
_atom_site_label
_atom_site_type_symbol
_atom_site_fract_x
_atom_site_fract_y
_atom_site_fract_z
O1	O	0.640938	0.057387	-0.042363
O2	O	1.140938	0.557387	0.457637
O3	O	0.500139	0.066160	-0.042381
O4	O	1.000139	0.566160	0.457619
O5	O	0.574924	-0.008626	-0.042360
O6	O	1.074924	0.491374	0.457640
O7	O	0.566152	0.132173	-0.042383
O8	O	1.066152	0.632173	0.457617
O9	O	0.574910	-0.008614	0.042498
O10	O	1.074910	0.491386	0.542498
O11	O	0.500124	0.066172	0.042477
O12	O	1.000124	0.566172	0.542477
O13	O	0.640923	0.057398	0.042495
O14	O	1.140923	0.557398	0.542495
Cu15	Cu	0.570522	0.061786	0.050235
Cu16	Cu	1.070522	0.561786	0.550235
Cu17	Cu	0.570540	0.061772	-0.050120
Cu18	Cu	1.070540	0.561772	0.449880
O19	O	0.566138	0.132184	0.042475
O20	O	1.066138	0.632184	0.542475
C21	C	0.482124	0.065986	0.000046
C22	C	0.982124	0.565986	0.500046
C23	C	0.428468	0.065443	0.000040
C24	C	0.928468	0.565443	0.500040
C25	C	0.095742	0.062034	0.046316
C26	C	0.595742	0.562034	0.546316
C27	C	-0.105915	0.059972	0.046322
C28	C	0.394085	0.559972	0.546322
O29	O	-0.131995	0.059690	0.085661
O30	O	0.368005	0.559690	0.585661
N31	N	-0.131122	0.059710	0.000066
N32	N	0.368878	0.559710	0.500066
C33	C	-0.105911	0.059960	-0.046195
C34	C	0.394089	0.559960	0.453805
O35	O	-0.131978	0.059684	-0.085538
O36	O	0.368022	0.559684	0.414462
C37	C	0.095746	0.062018	-0.046200
C38	C	0.595746	0.562018	0.453800
C39	C	0.120950	0.062285	0.000059
C40	C	0.620950	0.562285	0.500059
C41	C	0.120946	0.062301	0.092572
C42	C	0.620946	0.562301	0.592572
C43	C	0.171357	0.062819	0.092570
C44	C	0.671357	0.562819	0.592570
C45	C	0.196564	0.063070	0.046312
C46	C	0.696564	0.563070	0.546312
C47	C	0.171361	0.062803	0.000057
C48	C	0.671361	0.562803	0.500057
C49	C	0.120957	0.062264	-0.092460
C50	C	0.620957	0.562264	0.407540
C51	C	0.171374	0.062777	-0.092458
C52	C	0.671374	0.562777	0.407542
C53	C	0.196578	0.063045	-0.046199
C54	C	0.696578	0.563045	0.453801
C55	C	0.246979	0.063572	-0.046202
C56	C	0.746979	0.563572	0.453798
N57	N	0.272186	0.063835	0.000054
N58	N	0.772186	0.563835	0.500054
C59	C	0.246979	0.063584	0.046311
C60	C	0.746979	0.563584	0.546311
C61	C	-0.211784	0.058880	-0.046188
C62	C	0.288216	0.558880	0.453812
C63	C	-0.262199	0.058366	-0.046187
C64	C	0.237801	0.558366	0.453813
C65	C	-0.262199	0.058378	0.046330
C66	C	0.237801	0.558378	0.546330
C67	C	-0.211785	0.058895	0.046328
C68	C	0.288215	0.558895	0.546328
C69	C	-0.186578	0.059142	0.000068
C70	C	0.313422	0.559142	0.500068
C71	C	0.352845	0.064672	0.046303
C72	C	0.852845	0.564672	0.546303
C73	C	0.403261	0.065192	0.046297
C74	C	0.903261	0.565192	0.546297
C75	C	0.403257	0.065178	-0.046220
C76	C	0.903257	0.565178	0.453780
C77	C	0.352846	0.064660	-0.046214
C78	C	0.852846	0.564660	0.453786
C79	C	0.327642	0.064406	0.000052
C80	C	0.827642	0.564406	0.500052
O81	O	0.273090	0.063849	-0.085521
O82	O	0.773090	0.563849	0.414479
O83	O	0.273055	0.063848	0.085649
O84	O	0.773055	0.563848	0.585649
C85	C	0.045331	0.061516	0.046318
C86	C	0.545331	0.561516	0.546318
C87	C	0.020127	0.061249	0.000063
C88	C	0.520127	0.561249	0.500063
C89	C	0.045335	0.061500	-0.046194
C90	C	0.545335	0.561500	0.453806
C91	C	-0.030287	0.060735	0.000064
C92	C	0.469713	0.560735	0.500064
C93	C	-0.055494	0.060484	0.046322
C94	C	0.444506	0.560484	0.546322
C95	C	-0.030287	0.060746	0.092578
C96	C	0.469713	0.560746	0.592578
C97	C	0.020124	0.061264	0.092576
C98	C	0.520124	0.561264	0.592576
C99	C	0.020128	0.061238	-0.092450
C100	C	0.520128	0.561238	0.407550
C101	C	-0.030283	0.060720	-0.092445
C102	C	0.469717	0.560720	0.407555
C103	C	-0.055491	0.060469	-0.046187
C104	C	0.444509	0.560469	0.453813
C105	C	0.574737	-0.026628	0.000071
C106	C	1.074737	0.473372	0.500071
C107	C	0.574194	-0.080284	0.000076
C108	C	1.074194	0.419716	0.500076
C109	C	0.570787	-0.413006	-0.046206
C110	C	1.070787	0.086994	0.453794
C111	C	0.568726	-0.614664	-0.046215
C112	C	1.068726	-0.114664	0.453785
O113	O	0.568445	-0.640740	-0.085554
O114	O	1.068445	-0.140740	0.414446
N115	N	0.568462	-0.639874	0.000041
N116	N	1.068462	-0.139874	0.500041
C117	C	0.568710	-0.614667	0.046302
C118	C	1.068710	-0.114667	0.546302
O119	O	0.568434	-0.640737	0.085645
O120	O	1.068434	-0.140737	0.585645
C121	C	0.570768	-0.413010	0.046311
C122	C	1.070768	0.086990	0.546311
C123	C	0.571037	-0.387802	0.000052
C124	C	1.071037	0.112198	0.500052
C125	C	0.571055	-0.387798	-0.092461
C126	C	1.071055	0.112202	0.407539
C127	C	0.571573	-0.337387	-0.092458
C128	C	1.071573	0.162613	0.407542
C129	C	0.571823	-0.312184	-0.046200
C130	C	1.071823	0.187816	0.453800
C131	C	0.571555	-0.337391	0.000055
C132	C	1.071555	0.162609	0.500055
C133	C	0.571013	-0.387803	0.092571
C134	C	1.071013	0.112197	0.592571
C135	C	0.571526	-0.337385	0.092569
C136	C	1.071526	0.162615	0.592569
C137	C	0.571795	-0.312178	0.046311
C138	C	1.071795	0.187822	0.546311
C139	C	0.572322	-0.261777	0.046315
C140	C	1.072322	0.238223	0.546315
N141	N	0.572586	-0.236566	0.000060
N142	N	1.072586	0.263434	0.500060
C143	C	0.572336	-0.261769	-0.046198
C144	C	1.072336	0.238231	0.453802
C145	C	0.567631	-0.720540	0.046294
C146	C	1.067631	-0.220540	0.546294
C147	C	0.567118	-0.770954	0.046292
C148	C	1.067118	-0.270954	0.546292
C149	C	0.567132	-0.770947	-0.046225
C150	C	1.067132	-0.270947	0.453775
C151	C	0.567649	-0.720533	-0.046222
C152	C	1.067649	-0.220533	0.453778
C153	C	0.567895	-0.695329	0.000038
C154	C	1.067895	-0.195329	0.500038
C155	C	0.573424	-0.155903	-0.046189
C156	C	1.073424	0.344097	0.453811
C157	C	0.573944	-0.105487	-0.046182
C158	C	1.073944	0.394513	0.453818
C159	C	0.573927	-0.105498	0.046335
C160	C	1.073927	0.394502	0.546335
C161	C	0.573410	-0.155910	0.046328
C162	C	1.073410	0.344090	0.546328
C163	C	0.573157	-0.181110	0.000062
C164	C	1.073157	0.318890	0.500062
O165	O	0.572598	-0.235669	0.085634
O166	O	1.072598	0.264331	0.585634
O167	O	0.572602	-0.235689	-0.085535
O168	O	1.072602	0.264311	0.414465
C169	C	0.570269	-0.463417	-0.046209
C170	C	1.070269	0.036583	0.453791
C171	C	0.570001	-0.488624	0.000046
C172	C	1.070001	0.011376	0.500046
C173	C	0.570251	-0.463421	0.046304
C174	C	1.070251	0.036579	0.546304
C175	C	0.569487	-0.539039	0.000044
C176	C	1.069487	-0.039039	0.500044
C177	C	0.569238	-0.564242	-0.046213
C178	C	1.069238	-0.064242	0.453787
C179	C	0.569502	-0.539031	-0.092469
C180	C	1.069502	-0.039031	0.407531
C181	C	0.570020	-0.488620	-0.092466
C182	C	1.070020	0.011380	0.407534
C183	C	0.569987	-0.488632	0.092560
C184	C	1.069987	0.011368	0.592560
C185	C	0.569469	-0.539043	0.092553
C186	C	1.069469	-0.039043	0.592553
C187	C	0.569220	-0.564246	0.046296
C188	C	1.069220	-0.064246	0.546296
C189	C	0.658938	0.057573	0.000067
C190	C	1.158938	0.557573	0.500067
C191	C	0.712594	0.058115	0.000070
C192	C	1.212594	0.558115	0.500070
C193	C	0.566325	0.150186	0.000043
C194	C	1.066325	0.650186	0.500043
C195	C	0.566868	0.203842	0.000034
C196	C	1.066868	0.703842	0.500034
N197	N	0.570514	0.061795	0.120818
N198	N	1.070514	0.561795	0.620818
N199	N	0.570552	0.061759	-0.120704
N200	N	1.070552	0.561759	0.379296
C201	C	0.603651	0.028664	0.473342
C202	C	1.103651	0.528664	0.973342
C203	C	0.603662	0.028658	0.687000
C204	C	1.103662	0.528658	1.187000
O205	O	0.631818	0.000491	0.714630
O206	O	1.131818	0.500491	1.214630
N207	N	0.570542	0.061762	0.713712
N208	N	1.070542	0.561762	1.213712
C209	C	0.537415	0.094867	0.687007
C210	C	1.037415	0.594867	1.187007
O211	O	0.509242	0.123021	0.714630
O212	O	1.009242	0.623021	1.214630
C213	C	0.537403	0.094872	0.473349
C214	C	1.037403	0.594872	0.973349
C215	C	0.570528	0.061769	0.446640
C216	C	1.070528	0.561769	0.946640
C217	C	0.636773	-0.004436	0.446632
C218	C	1.136773	0.495564	0.946632
C219	C	0.636772	-0.004432	0.393221
C220	C	1.136772	0.495568	0.893221
C221	C	0.603649	0.028672	0.366519
C222	C	1.103649	0.528672	0.866519
C223	C	0.570527	0.061773	0.393228
C224	C	1.070527	0.561773	0.893228
C225	C	0.504274	0.127975	0.446644
C226	C	1.004274	0.627975	0.946644
C227	C	0.504273	0.127972	0.393226
C228	C	1.004273	0.627972	0.893226
C229	C	0.537398	0.094869	0.366517
C230	C	1.037398	0.594869	0.866517
C231	C	0.537402	0.094881	0.313115
C232	C	1.037402	0.594881	0.813115
N233	N	0.570522	0.061777	0.286403
N234	N	1.070522	0.561777	0.786403
C235	C	0.603645	0.028672	0.313105
C236	C	1.103645	0.528672	0.813105
C237	C	0.537425	0.094864	0.799180
C238	C	1.037425	0.594864	1.299180
C239	C	0.537429	0.094863	0.852594
C240	C	1.037429	0.594863	1.352594
C241	C	0.603675	0.028653	0.852584
C242	C	1.103675	0.528653	1.352584
C243	C	0.603673	0.028656	0.799169
C244	C	1.103673	0.528656	1.299169
C245	C	0.570545	0.061760	0.772468
C246	C	1.070545	0.561760	1.272468
C247	C	0.603640	0.028683	0.200937
C248	C	1.103640	0.528683	0.700937
C249	C	0.603637	0.028691	0.147520
C250	C	1.103637	0.528691	0.647520
C251	C	0.537390	0.094900	0.147535
C252	C	1.037390	0.594900	0.647535
C253	C	0.537394	0.094894	0.200947
C254	C	1.037394	0.594894	0.700947
C255	C	0.570521	0.061781	0.227646
C256	C	1.070521	0.561781	0.727646
O257	O	0.509257	0.123029	0.285452
O258	O	1.009257	0.623029	0.785452
O259	O	0.631807	0.000516	0.285472
O260	O	1.131807	0.500516	0.785472
C261	C	0.603652	0.028661	0.526753
C262	C	1.103652	0.528661	1.026753
C263	C	0.570530	0.061761	0.553463
C264	C	1.070530	0.561761	1.053463
C265	C	0.537407	0.094865	0.526761
C266	C	1.037407	0.594865	1.026761
C267	C	0.570534	0.061761	0.606877
C268	C	1.070534	0.561761	1.106877
C269	C	0.603657	0.028657	0.633579
C270	C	1.103657	0.528657	1.133579
C271	C	0.636777	-0.004447	0.606867
C272	C	1.136777	0.495553	1.106867
C273	C	0.636776	-0.004444	0.553455
C274	C	1.136776	0.495556	1.053455
C275	C	0.504287	0.127969	0.553473
C276	C	1.004287	0.627969	1.053473
C277	C	0.504292	0.127963	0.606884
C278	C	1.004292	0.627963	1.106884
C279	C	0.537415	0.094859	0.633586
C280	C	1.037415	0.594859	1.133586
H281	H	0.423790	0.065384	-0.083881
H282	H	0.923790	0.565384	0.416119
C283	C	0.532917	-0.043043	0.099982
C284	C	1.032917	0.456957	0.599982
C285	C	0.574195	-0.077783	0.097178
C286	C	1.074195	0.422217	0.597178
H287	H	0.533079	-0.025933	0.131371
H288	H	1.033079	0.474067	0.631371
H289	H	0.533157	-0.020825	0.072431
H290	H	1.033157	0.479175	0.572431
H291	H	0.504522	-0.058814	0.098053
H292	H	1.004522	0.441186	0.598053
H293	H	0.602591	-0.062012	0.099102
H294	H	1.102591	0.437988	0.599102
H295	H	0.573960	-0.100005	0.124736
H296	H	1.073960	0.399995	0.624736
H297	H	0.570238	-0.468101	-0.130135
H298	H	1.070238	0.031899	0.369865
C299	C	-0.160849	0.101022	-0.099877
C300	C	0.339151	0.601022	0.400123
C301	C	-0.184081	0.059157	-0.097042
C302	C	0.315919	0.559157	0.402958
H303	H	-0.143747	0.101193	-0.131271
H304	H	0.356253	0.601193	0.368729
H305	H	-0.184421	0.129016	-0.097954
H306	H	0.315579	0.629016	0.402046
H307	H	-0.138619	0.101246	-0.072331
H308	H	0.361381	0.601246	0.427669
H309	H	-0.206314	0.058935	-0.124587
H310	H	0.293686	0.558935	0.375413
H311	H	-0.160507	0.031156	-0.098970
H312	H	0.339493	0.531156	0.401030
H313	H	0.477318	0.154924	0.628627
H314	H	0.977318	0.654924	1.128627
H315	H	0.571719	-0.316866	0.130242
H316	H	1.071719	0.183134	0.630242
H317	H	0.040647	0.061441	-0.130119
H318	H	0.540647	0.561441	0.369881
H319	H	0.423779	0.065411	0.083969
H320	H	0.923779	0.565411	0.583969
H321	H	0.569301	-0.559561	-0.130134
H322	H	1.069301	-0.059561	0.369866
H323	H	0.567833	-0.700025	0.083967
H324	H	1.067833	-0.200025	0.583967
C325	C	0.126045	0.062284	-0.183906
C326	C	0.626045	0.562284	0.316094
C327	C	0.093263	0.061962	-0.143311
C328	C	0.593263	0.561962	0.356689
H329	H	0.108949	0.062093	-0.215300
H330	H	0.608949	0.562093	0.284700
H331	H	0.141799	0.090686	-0.181990
H332	H	0.641799	0.590686	0.318010
H333	H	0.149617	0.034286	-0.181962
H334	H	0.649617	0.534286	0.318038
H335	H	0.069693	0.089962	-0.145253
H336	H	0.569693	0.589962	0.354747
H337	H	0.077502	0.033557	-0.145228
H338	H	0.577502	0.533557	0.354772
C339	C	0.571033	-0.382722	0.184017
C340	C	1.071033	0.117278	0.684017
C341	C	0.570712	-0.415501	0.143421
C342	C	1.070712	0.084499	0.643421
H343	H	0.570843	-0.399822	0.215411
H344	H	1.070843	0.100178	0.715411
H345	H	0.599435	-0.366967	0.182099
H346	H	1.099435	0.133033	0.682099
H347	H	0.543035	-0.359151	0.182076
H348	H	1.043035	0.140849	0.682076
H349	H	0.598713	-0.439070	0.145360
H350	H	1.098713	0.060930	0.645360
H351	H	0.542307	-0.431264	0.145341
H352	H	1.042307	0.068736	0.645341
H353	H	0.510423	0.121854	0.125786
H354	H	1.010423	0.621854	0.625786
H355	H	0.510460	0.121824	0.874337
H356	H	1.010460	0.621824	1.374337
C357	C	0.616070	-0.054520	-0.099861
C358	C	1.116070	0.445480	0.400139
C359	C	0.574213	-0.077764	-0.097025
C360	C	1.074213	0.422236	0.402975
H361	H	0.616228	-0.037404	-0.131248
H362	H	1.116228	0.462596	0.368752
H363	H	0.616298	-0.032305	-0.072307
H364	H	1.116298	0.467695	0.427693
H365	H	0.644072	-0.078090	-0.097959
H366	H	1.144072	0.421910	0.402041
H367	H	0.546210	-0.054193	-0.098923
H368	H	1.046210	0.445807	0.401077
H369	H	0.573980	-0.099981	-0.124587
H370	H	1.073980	0.400019	0.375413
C371	C	-0.025205	0.060752	-0.183896
C372	C	0.474795	0.560752	0.316104
C373	C	-0.057983	0.060425	-0.143298
C374	C	0.442017	0.560425	0.356702
H375	H	-0.042305	0.060564	-0.215289
H376	H	0.457695	0.560564	0.284711
H377	H	-0.009452	0.089154	-0.181979
H378	H	0.490548	0.589154	0.318021
H379	H	-0.001633	0.032754	-0.181957
H380	H	0.498367	0.532754	0.318043
H381	H	-0.081554	0.088425	-0.145235
H382	H	0.418446	0.588425	0.354765
H383	H	-0.073744	0.032020	-0.145216
H384	H	0.426256	0.532020	0.354784
H385	H	0.573216	-0.176415	-0.083863
H386	H	1.073216	0.323585	0.416137
C387	C	0.290399	0.105668	0.099978
C388	C	0.790399	0.605668	0.599978
C389	C	0.325144	0.064395	0.097158
C390	C	0.825144	0.564395	0.597158
H391	H	0.273295	0.105496	0.131372
H392	H	0.773295	0.605496	0.631372
H393	H	0.306161	0.134063	0.098047
H394	H	0.806161	0.634063	0.598047
H395	H	0.268171	0.105429	0.072431
H396	H	0.768171	0.605429	0.572431
H397	H	0.347374	0.064635	0.124703
H398	H	0.847374	0.564635	0.624703
H399	H	0.309381	0.035992	0.099094
H400	H	0.809381	0.535992	0.599094
C401	C	0.573446	-0.150850	0.137778
C402	C	1.073446	0.349150	0.637778
C403	C	0.573117	-0.183621	0.097176
C404	C	1.073117	0.316379	0.597176
H405	H	0.573259	-0.167955	0.169168
H406	H	1.073259	0.332045	0.669168
H407	H	0.601849	-0.135097	0.135859
H408	H	1.101849	0.364903	0.635859
H409	H	0.545449	-0.127276	0.135844
H410	H	1.045449	0.372724	0.635844
H411	H	0.601116	-0.207192	0.099107
H412	H	1.101116	0.292808	0.599107
H413	H	0.544711	-0.199381	0.099095
H414	H	1.044711	0.300619	0.599095
H415	H	0.191895	0.062979	-0.130130
H416	H	0.691895	0.562979	0.369870
H417	H	0.477295	0.154929	0.371489
H418	H	0.977295	0.654929	0.871489
C419	C	-0.313137	0.016225	0.100000
C420	C	0.186863	0.516225	0.600000
C421	C	-0.289910	0.058094	0.097179
C422	C	0.210090	0.558094	0.597179
H423	H	-0.330242	0.016045	0.131392
H424	H	0.169758	0.516045	0.631392
H425	H	-0.335359	0.016002	0.072453
H426	H	0.164641	0.516002	0.572453
H427	H	-0.289558	-0.011769	0.098076
H428	H	0.210442	0.488231	0.598076
H429	H	-0.313489	0.086088	0.099099
H430	H	0.186511	0.586088	0.599099
H431	H	-0.267685	0.058321	0.124734
H432	H	0.232315	0.558321	0.624734
H433	H	0.663746	-0.031396	0.468368
H434	H	1.163746	0.468604	0.968368
C435	C	0.571528	-0.342459	-0.183904
C436	C	1.071528	0.157541	0.316096
C437	C	0.571860	-0.309682	-0.143307
C438	C	1.071860	0.190318	0.356693
H439	H	0.571700	-0.325355	-0.215298
H440	H	1.071700	0.174645	0.284702
H441	H	0.599526	-0.366023	-0.181977
H442	H	1.099526	0.133977	0.318023
H443	H	0.543126	-0.358219	-0.181974
H444	H	1.043126	0.141781	0.318026
H445	H	0.600264	-0.293924	-0.145236
H446	H	1.100264	0.206076	0.354764
H447	H	0.543859	-0.286109	-0.145236
H448	H	1.043859	0.213891	0.354764
C449	C	0.015044	0.061220	0.184022
C450	C	0.515044	0.561220	0.684022
C451	C	0.047824	0.061553	0.143426
C452	C	0.547824	0.561553	0.643426
H453	H	0.032145	0.061394	0.215416
H454	H	0.532145	0.561394	0.715416
H455	H	-0.008521	0.089218	0.182091
H456	H	0.491479	0.589218	0.682091
H457	H	-0.000715	0.032818	0.182094
H458	H	0.499285	0.532818	0.682094
H459	H	0.063581	0.089957	0.145351
H460	H	0.563581	0.589957	0.645351
H461	H	0.071399	0.033552	0.145357
H462	H	0.571399	0.533552	0.645357
C463	C	0.569498	-0.533972	0.184005
C464	C	1.069498	-0.033972	0.684005
C465	C	0.569173	-0.566747	0.143406
C466	C	1.069173	-0.066747	0.643406
H467	H	0.569308	-0.551074	0.215397
H468	H	1.069308	-0.051074	0.715397
H469	H	0.597900	-0.518219	0.182087
H470	H	1.097900	-0.018219	0.682087
H471	H	0.541500	-0.510399	0.182067
H472	H	1.041500	-0.010399	0.682067
H473	H	0.597172	-0.590318	0.145342
H474	H	1.097172	-0.090318	0.645342
H475	H	0.540767	-0.582508	0.145325
H476	H	1.040767	-0.082508	0.645325
H477	H	0.477301	0.154930	0.468384
H478	H	0.977301	0.654930	0.968384
H479	H	0.570850	-0.408313	-0.130131
H480	H	1.070850	0.091687	0.369869
C481	C	-0.216860	0.058853	0.137775
C482	C	0.283140	0.558853	0.637775
C483	C	-0.184082	0.059182	0.097177
C484	C	0.315918	0.559182	0.597177
H485	H	-0.199758	0.059026	0.169168
H486	H	0.300242	0.559026	0.669168
H487	H	-0.240424	0.086852	0.135846
H488	H	0.259576	0.586852	0.635846
H489	H	-0.232622	0.030452	0.135849
H490	H	0.267378	0.530452	0.635849
H491	H	-0.168323	0.087585	0.099101
H492	H	0.331677	0.587585	0.599101
H493	H	-0.160510	0.031180	0.099108
H494	H	0.339490	0.531180	0.599108
H495	H	-0.050820	0.060544	0.130242
H496	H	0.449180	0.560544	0.630242
C497	C	0.567611	-0.725601	-0.137670
C498	C	1.067611	-0.225601	0.362330
C499	C	0.567939	-0.692826	-0.097071
C500	C	1.067939	-0.192826	0.402929
H501	H	0.567786	-0.708497	-0.169062
H502	H	1.067786	-0.208497	0.330938
H503	H	0.595610	-0.749165	-0.135741
H504	H	1.095610	-0.249165	0.364259
H505	H	0.539210	-0.741363	-0.135743
H506	H	1.039210	-0.241363	0.364257
H507	H	0.596342	-0.677067	-0.098995
H508	H	1.096342	-0.177067	0.401005
H509	H	0.539937	-0.669253	-0.099001
H510	H	1.039937	-0.169253	0.400999
H511	H	0.510425	0.121854	0.222694
H512	H	1.010425	0.621854	0.722694
H513	H	0.570191	-0.468116	0.130229
H514	H	1.070191	0.031884	0.630229
C515	C	0.669123	-0.036762	0.195547
C516	C	1.169123	0.463238	0.695547
C517	C	0.640054	-0.007714	0.230279
C518	C	1.140054	0.492286	0.730279
H519	H	0.691606	-0.059228	0.213663
H520	H	1.191606	0.440772	0.713663
H521	H	0.649134	-0.054004	0.174716
H522	H	1.149134	0.445996	0.674716
H523	H	0.686350	-0.016753	0.174712
H524	H	1.186350	0.483247	0.674712
H525	H	0.622824	-0.027722	0.251111
H526	H	1.122824	0.472278	0.751111
H527	H	0.660046	0.009530	0.251119
H528	H	1.160046	0.509530	0.751119
C529	C	0.566343	-0.848229	-0.087300
C530	C	1.066343	-0.348229	0.412700
C531	C	0.566853	-0.798657	-0.097073
C532	C	1.066853	-0.298657	0.402927
H533	H	0.566164	-0.865335	-0.118690
H534	H	1.066164	-0.365335	0.381310
H535	H	0.594457	-0.860392	-0.068298
H536	H	1.094457	-0.360392	0.431702
H537	H	0.538056	-0.852578	-0.068291
H538	H	1.038056	-0.352578	0.431709
H539	H	0.595141	-0.794307	-0.116079
H540	H	1.095141	-0.294307	0.383921
H541	H	0.538736	-0.786490	-0.116083
H542	H	1.038736	-0.286490	0.383917
H543	H	0.566906	-0.791475	0.083961
H544	H	1.066906	-0.291475	0.583961
H545	H	0.663744	-0.031389	0.371477
H546	H	1.163744	0.468611	0.871477
H547	H	0.630613	0.001735	0.125775
H548	H	1.130613	0.501735	0.625775
H549	H	0.332323	0.064450	-0.083882
H550	H	0.832323	0.564450	0.416118
H551	H	0.630646	0.001700	0.777425
H552	H	1.130646	0.501700	1.277425
H553	H	0.630646	0.001699	0.874334
H554	H	1.130646	0.501699	1.374334
C555	C	0.702253	-0.069890	0.558827
C556	C	1.202253	0.430110	1.058827
C557	C	0.673185	-0.040835	0.524101
C558	C	1.173185	0.459165	1.024101
H559	H	0.724728	-0.092360	0.540706
H560	H	1.224728	0.407640	1.040706
H561	H	0.719484	-0.049890	0.579656
H562	H	1.219484	0.450110	1.079656
H563	H	0.682258	-0.087132	0.579664
H564	H	1.182258	0.412868	1.079664
H565	H	0.693179	-0.023591	0.503266
H566	H	1.193179	0.476409	1.003266
H567	H	0.655952	-0.060839	0.503263
H568	H	1.155952	0.439161	1.003263
C569	C	0.166278	0.062772	0.184016
C570	C	0.666278	0.562772	0.684016
C571	C	0.199058	0.063105	0.143420
C572	C	0.699058	0.563105	0.643420
H573	H	0.183378	0.062944	0.215410
H574	H	0.683378	0.562944	0.715410
H575	H	0.142713	0.090770	0.182087
H576	H	0.642713	0.590770	0.682087
H577	H	0.150518	0.034370	0.182087
H578	H	0.650518	0.534370	0.682087
H579	H	0.214815	0.091509	0.145347
H580	H	0.714815	0.591509	0.645347
H581	H	0.222631	0.035104	0.145350
H582	H	0.722631	0.535104	0.645350
H583	H	0.510447	0.121822	0.777444
H584	H	1.010447	0.621822	1.277444
H585	H	0.663749	-0.031401	0.628616
H586	H	1.163749	0.468599	1.128616
C587	C	0.438813	0.193417	0.558859
C588	C	0.938813	0.693417	1.058859
C589	C	0.467878	0.164364	0.524127
C590	C	0.967878	0.664364	1.024127
H591	H	0.416338	0.215890	0.540742
H592	H	0.916338	0.715890	1.040742
H593	H	0.421582	0.173415	0.579689
H594	H	0.921582	0.673415	1.079689
H595	H	0.458810	0.210655	0.579694
H596	H	0.958810	0.710655	1.079694
H597	H	0.447882	0.147123	0.503294
H598	H	0.947882	0.647123	1.003294
H599	H	0.485111	0.184368	0.503288
H600	H	0.985111	0.684368	1.003288
H601	H	-0.282716	0.058156	-0.083856
H602	H	0.217284	0.558156	0.416144
H603	H	0.100428	0.062095	0.130242
H604	H	0.600428	0.562095	0.630242
