data_functionalizedCrystal
_audit_creation_method	'MofGen! by Chris Wilmer'
_symmetry_space_group_name_H-M	'P1'
_symmetry_Int_Tables_number	1
_symmetry_cell_setting	triclinic
loop_
_symmetry_equiv_pos_as_xyz
  x,y,z
_cell_length_a	16.120530
_cell_length_b	17.077402
_cell_length_c	17.077396
_cell_angle_alpha	89.970216
_cell_angle_beta	87.083390
_cell_angle_gamma	87.118337
loop_
_atom_site_label
_atom_site_type_symbol
_atom_site_fract_x
_atom_site_fract_y
_atom_site_fract_z
Zn1	Zn	-1.274550	0.373441	0.504614
Zn2	Zn	-0.941216	0.706775	0.837947
Zn3	Zn	-0.607883	1.040108	1.171281
Zn4	Zn	-1.274451	0.504712	0.373340
Zn5	Zn	-0.941118	0.838045	0.706674
Zn6	Zn	-0.607784	1.171378	1.040007
Zn7	Zn	-1.135133	0.366803	0.366714
Zn8	Zn	-0.801800	0.700137	0.700047
Zn9	Zn	-0.468466	1.033470	1.033380
Zn10	Zn	-1.135099	0.498002	0.497919
Zn11	Zn	-0.801766	0.831336	0.831252
Zn12	Zn	-0.468432	1.164669	1.164585
O13	O	-1.204808	0.435740	0.435647
O14	O	-0.871475	0.769073	0.768980
O15	O	-0.538141	1.102406	1.102313
O16	O	-1.391202	0.396441	0.492775
O17	O	-1.057869	0.729774	0.826109
O18	O	-0.724536	1.063107	1.159442
O19	O	-1.255943	0.486447	0.262613
O20	O	-0.922610	0.819781	0.595946
O21	O	-0.589276	1.153114	0.929280
O22	O	-1.153682	0.257840	0.385035
O23	O	-0.820349	0.591173	0.718369
O24	O	-0.487016	0.924506	1.051702
O25	O	-1.391130	0.492884	0.396329
O26	O	-1.057797	0.826218	0.729663
O27	O	-0.724463	1.159551	1.062996
O28	O	-1.256111	0.262717	0.486350
O29	O	-0.922778	0.596050	0.819683
O30	O	-0.589445	0.929383	1.153017
O31	O	-1.153587	0.385127	0.257744
O32	O	-0.820253	0.718460	0.591078
O33	O	-0.486920	1.051793	0.924411
O34	O	-1.018463	0.378621	0.378543
O35	O	-0.685129	0.711954	0.711876
O36	O	-0.351796	1.045288	1.045210
O37	O	-1.153624	0.481449	0.608655
O38	O	-0.820291	0.814783	0.941988
O39	O	-0.486958	1.148116	1.275322
O40	O	-1.018438	0.475013	0.474939
O41	O	-0.685104	0.808346	0.808272
O42	O	-0.351771	1.141679	1.141605
O43	O	-1.256078	0.389935	0.613574
O44	O	-0.922745	0.723268	0.946907
O45	O	-0.589412	1.056602	1.280241
O46	O	-1.255910	0.613666	0.389837
O47	O	-0.922577	0.946999	0.723170
O48	O	-0.589243	1.280332	1.056504
O49	O	-1.153529	0.608737	0.481364
O50	O	-0.820195	0.942070	0.814698
O51	O	-0.486862	1.275403	1.148031
C52	C	-0.988200	0.425369	0.425296
C53	C	-0.654867	0.758702	0.758629
C54	C	-0.321533	1.092036	1.091962
C55	C	-0.895534	0.420951	0.420886
C56	C	-0.562201	0.754285	0.754220
C57	C	-0.228867	1.087618	1.087553
C58	C	-1.204728	0.639684	0.435611
C59	C	-0.871394	0.973017	0.768945
C60	C	-0.538061	1.306350	1.102278
C61	C	-1.204769	0.726935	0.435626
C62	C	-0.871436	1.060269	0.768960
C63	C	-0.538103	1.393602	1.102293
C64	C	-1.422262	0.446151	0.446038
C65	C	-1.088929	0.779485	0.779372
C66	C	-0.755595	1.112818	1.112705
C67	C	-1.514928	0.450588	0.450467
C68	C	-1.181595	0.783921	0.783800
C69	C	-0.848261	1.117255	1.117133
C70	C	-0.725872	0.412868	0.412842
C71	C	-0.392539	0.746201	0.746176
C72	C	-0.059206	1.079534	1.079509
C73	C	-0.684584	0.458669	0.458508
C74	C	-0.351251	0.792003	0.791842
C75	C	-0.017918	1.125336	1.125175
C76	C	-0.590179	0.454172	0.454033
C77	C	-0.256846	0.787505	0.787366
C78	C	0.076488	1.120838	1.120699
C79	C	-0.820286	0.417364	0.417317
C80	C	-0.486953	0.750698	0.750650
C81	C	-0.153620	1.084031	1.083984
C82	C	-1.204859	0.435684	0.640393
C83	C	-0.871525	0.769018	0.973727
C84	C	-0.538192	1.102351	1.307060
C85	C	-1.204880	0.435661	0.727644
C86	C	-0.871547	0.768994	1.060978
C87	C	-0.538213	1.102327	1.394311
C88	C	-1.204912	0.231000	0.435700
C89	C	-0.871578	0.564334	0.769034
C90	C	-0.538245	0.897667	1.102367
C91	C	-1.204956	0.143753	0.435723
C92	C	-0.871622	0.477086	0.769056
C93	C	-0.538289	0.810419	1.102390
C94	C	-1.258134	0.770469	0.388025
C95	C	-0.924801	1.103802	0.721358
C96	C	-0.591467	1.437135	1.054691
C97	C	-1.258175	0.852451	0.388047
C98	C	-0.924841	1.185784	0.721380
C99	C	-0.591508	1.519118	1.054713
C100	C	-1.204846	0.890898	0.435667
C101	C	-0.871513	1.224232	0.769000
C102	C	-0.538180	1.557565	1.102333
C103	C	-1.151479	0.847359	0.483274
C104	C	-0.818146	1.180693	0.816607
C105	C	-0.484813	1.514026	1.149940
C106	C	-1.151443	0.765379	0.483255
C107	C	-0.818110	1.098712	0.816589
C108	C	-0.484777	1.432045	1.149922
C109	C	-1.151557	1.018233	0.483307
C110	C	-0.818223	1.351566	0.816641
C111	C	-0.484890	1.684900	1.149974
C112	C	-1.151591	1.100219	0.483325
C113	C	-0.818258	1.433553	0.816658
C114	C	-0.484925	1.766886	1.149991
C115	C	-1.258288	1.105305	0.388098
C116	C	-0.924955	1.438639	0.721432
C117	C	-0.591621	1.771972	1.054765
C118	C	-1.258252	1.023325	0.388080
C119	C	-0.924919	1.356658	0.721413
C120	C	-0.591585	1.689992	1.054747
C121	C	-1.204884	0.979791	0.435686
C122	C	-0.871550	1.313125	0.769020
C123	C	-0.538217	1.646458	1.102353
C124	C	-1.204806	0.435740	0.231699
C125	C	-0.871472	0.769074	0.565032
C126	C	-0.538139	1.102407	0.898365
C127	C	-1.204946	0.435551	0.144456
C128	C	-0.871613	0.768884	0.477789
C129	C	-0.538279	1.102217	0.811123
C130	C	-1.258230	0.388005	0.771197
C131	C	-0.924896	0.721338	1.104530
C132	C	-0.591563	1.054672	1.437864
C133	C	-1.258240	0.387979	0.853178
C134	C	-0.924906	0.721313	1.186511
C135	C	-0.591573	1.054646	1.519845
C136	C	-1.204904	0.435614	0.891605
C137	C	-0.871570	0.768947	1.224938
C138	C	-0.538237	1.102281	1.558272
C139	C	-1.151548	0.483272	0.848046
C140	C	-0.818215	0.816605	1.181379
C141	C	-0.484881	1.149938	1.514713
C142	C	-1.151534	0.483292	0.766066
C143	C	-0.818201	0.816626	1.099400
C144	C	-0.484868	1.149959	1.432733
C145	C	-1.151582	0.483226	1.018918
C146	C	-0.818248	0.816559	1.352251
C147	C	-0.484915	1.149893	1.685584
C148	C	-1.151596	0.483206	1.100903
C149	C	-0.818263	0.816540	1.434237
C150	C	-0.484930	1.149873	1.767570
C151	C	-1.258287	0.387913	1.106030
C152	C	-0.924954	0.721246	1.439363
C153	C	-0.591620	1.054579	1.772696
C154	C	-1.258273	0.387934	1.024050
C155	C	-0.924940	0.721267	1.357383
C156	C	-0.591607	1.054600	1.690717
C157	C	-1.204919	0.435593	0.980497
C158	C	-0.871585	0.768926	1.313830
C159	C	-0.538252	1.102259	1.647163
H160	H	-0.720138	0.501259	0.500966
H161	H	-0.386804	0.834592	0.834300
H162	H	-0.053471	1.167925	1.167633
H163	H	-1.301665	0.349218	0.739916
H164	H	-0.968332	0.682551	1.073250
H165	H	-0.634998	1.015884	1.406583
H166	H	-1.108163	0.521993	1.132188
H167	H	-0.774830	0.855326	1.465521
H168	H	-0.441497	1.188660	1.798854
H169	H	-1.108118	0.522054	0.879340
H170	H	-0.774785	0.855387	1.212673
H171	H	-0.441451	1.188720	1.546006
O172	O	-1.093989	0.534693	0.719092
O173	O	-0.760656	0.868026	1.052425
O174	O	-0.427323	1.201359	1.385758
H175	H	-1.102932	0.526698	0.655630
H176	H	-0.769599	0.860031	0.988964
H177	H	-0.436266	1.193365	1.322297
O178	O	-1.093997	0.971275	0.534653
O179	O	-0.760664	1.304609	0.867987
O180	O	-0.427330	1.637942	1.201320
H181	H	-1.051594	0.931952	0.497449
H182	H	-0.718260	1.265286	0.830783
H183	H	-0.384927	1.598619	1.164116
H184	H	-1.301684	0.349175	0.888636
H185	H	-0.968351	0.682509	1.221969
H186	H	-0.635018	1.015842	1.555302
H187	H	-1.301556	0.739170	0.349243
H188	H	-0.968223	1.072504	0.682577
H189	H	-0.634890	1.405837	1.015910
H190	H	-0.690321	0.370281	0.370388
H191	H	-0.356988	0.703615	0.703721
H192	H	-0.023654	1.036948	1.037055
O193	O	-1.315832	0.336508	1.153004
O194	O	-0.982499	0.669841	1.486337
O195	O	-0.649166	1.003175	1.819670
H196	H	-1.352926	0.303397	1.112511
H197	H	-1.019593	0.636730	1.445844
H198	H	-0.686260	0.970064	1.779177
O199	O	-1.315727	0.899408	0.336700
O200	O	-0.982393	1.232741	0.670034
O201	O	-0.649060	1.566075	1.003367
H202	H	-1.352794	0.858900	0.303576
H203	H	-1.019461	1.192233	0.636909
H204	H	-0.686127	1.525566	0.970242
O205	O	-1.094084	1.141693	0.534694
O206	O	-0.760751	1.475027	0.868027
O207	O	-0.427417	1.808360	1.201360
H208	H	-1.056978	1.097651	0.567805
H209	H	-0.723645	1.430984	0.901138
H210	H	-0.390312	1.764318	1.234472
O211	O	-1.315771	0.981851	0.336723
O212	O	-0.982438	1.315185	0.670057
O213	O	-0.649105	1.648518	1.003390
H214	H	-1.352895	1.025894	0.303629
H215	H	-1.019562	1.359228	0.636963
H216	H	-0.686228	1.692561	0.970296
O217	O	-1.315860	1.152253	0.336757
O218	O	-0.982526	1.485586	0.670090
O219	O	-0.649193	1.818919	1.003423
H220	H	-1.306937	1.215718	0.344777
H221	H	-0.973603	1.549052	0.678110
H222	H	-0.640270	1.882385	1.011443
O223	O	-1.093952	0.888829	0.534626
O224	O	-0.760619	1.222162	0.867959
O225	O	-0.427286	1.555495	1.201293
H226	H	-1.131252	0.927915	0.576377
H227	H	-0.797919	1.261248	0.909710
H228	H	-0.464585	1.594582	1.243044
H229	H	-1.107990	0.729934	0.522019
H230	H	-0.774656	1.063268	0.855352
H231	H	-0.441323	1.396601	1.188685
H232	H	-1.108122	0.522022	0.983458
H233	H	-0.774788	0.855355	1.316792
H234	H	-0.441455	1.188689	1.650125
O235	O	-1.315802	0.336562	0.982599
O236	O	-0.982469	0.669896	1.315932
O237	O	-0.649135	1.003229	1.649265
H238	H	-1.352901	0.303414	1.026655
H239	H	-1.019568	0.636747	1.359988
H240	H	-0.686234	0.970081	1.693321
