data_functionalizedCrystal
_audit_creation_method	'MofGen! by Chris Wilmer'
_symmetry_space_group_name_H-M	'P1'
_symmetry_Int_Tables_number	1
_symmetry_cell_setting	triclinic
loop_
_symmetry_equiv_pos_as_xyz
  x,y,z
_cell_length_a	12.759401
_cell_length_b	13.897448
_cell_length_c	12.759393
_cell_angle_alpha	89.968008
_cell_angle_beta	89.980858
_cell_angle_gamma	90.017704
loop_
_atom_site_label
_atom_site_type_symbol
_atom_site_fract_x
_atom_site_fract_y
_atom_site_fract_z
Zn1	Zn	1.606230	-0.383971	-0.593995
Zn2	Zn	2.106230	0.116029	-0.093995
Zn3	Zn	1.606117	-0.545296	-0.418309
Zn4	Zn	2.106117	-0.045296	0.081691
Zn5	Zn	1.430533	-0.384017	-0.418331
Zn6	Zn	1.930533	0.115983	0.081669
Zn7	Zn	1.430512	-0.545225	-0.593948
Zn8	Zn	1.930512	-0.045225	-0.093948
O9	O	1.518348	-0.464627	-0.506146
O10	O	2.018348	0.035373	-0.006146
O11	O	1.753236	-0.405381	-0.570700
O12	O	2.253236	0.094619	-0.070700
O13	O	1.582786	-0.523951	-0.271291
O14	O	2.082786	-0.023951	0.228709
O15	O	1.453897	-0.249029	-0.441662
O16	O	1.953897	0.250971	0.058338
O17	O	1.753153	-0.523906	-0.441625
O18	O	2.253153	-0.023906	0.058375
O19	O	1.582981	-0.248995	-0.570721
O20	O	2.082981	0.251005	-0.070721
O21	O	1.453786	-0.405460	-0.271307
O22	O	1.953786	0.094540	0.228693
O23	O	1.283510	-0.405391	-0.441617
O24	O	1.783510	0.094609	0.058383
O25	O	1.453860	-0.523786	-0.740975
O26	O	1.953860	-0.023786	-0.240975
O27	O	1.283494	-0.523830	-0.570642
O28	O	1.783494	-0.023830	-0.070642
O29	O	1.582960	-0.405312	-0.741010
O30	O	2.082960	0.094688	-0.241010
O31	O	1.582766	-0.680268	-0.441579
O32	O	2.082766	-0.180268	0.058421
O33	O	1.453750	-0.680216	-0.570620
O34	O	1.953750	-0.180216	-0.070620
C35	C	1.245381	-0.464609	-0.506127
C36	C	1.745381	0.035391	-0.006127
C37	C	1.128604	-0.464624	-0.506144
C38	C	1.628604	0.035376	-0.006144
C39	C	1.518271	-0.715242	-0.506115
C40	C	2.018271	-0.215242	-0.006115
C41	C	1.518335	-0.822456	-0.506138
C42	C	2.018335	-0.322456	-0.006138
C43	C	0.964037	-0.526405	-0.573240
C44	C	1.464037	-0.026405	-0.073240
C45	C	1.073761	-0.526392	-0.573223
C46	C	1.573761	-0.026392	-0.073223
C47	C	1.073718	-0.402871	-0.439070
C48	C	1.573718	0.097129	0.060930
C49	C	0.963996	-0.402889	-0.439083
C50	C	1.463996	0.097111	0.060917
C51	C	0.909199	-0.588170	-0.640330
C52	C	1.409199	-0.088170	-0.140330
C53	C	0.964077	-0.649924	-0.707403
C54	C	1.464077	-0.149924	-0.207403
C55	C	1.073801	-0.649912	-0.707386
C56	C	1.573801	-0.149912	-0.207386
C57	C	1.128647	-0.588145	-0.640296
C58	C	1.628647	-0.088145	-0.140296
C59	C	1.518445	-1.018751	-0.506203
C60	C	2.018445	-0.518751	-0.006203
C61	C	1.518381	-0.909518	-0.506170
C62	C	2.018381	-0.409518	-0.006170
C63	C	1.792381	-0.464646	-0.506165
C64	C	2.292381	0.035354	-0.006165
C65	C	1.909158	-0.464655	-0.506173
C66	C	2.409158	0.035345	-0.006173
C67	C	1.518420	-0.464536	-0.780179
C68	C	2.018420	0.035464	-0.280179
C69	C	1.518451	-0.464497	-0.896956
C70	C	2.018451	0.035503	-0.396956
C71	C	1.518454	-0.213034	-0.506199
C72	C	2.018454	0.286966	-0.006199
C73	C	1.518499	-0.105820	-0.506222
C74	C	2.018499	0.394180	-0.006222
C75	C	1.585660	-0.526125	-1.061539
C76	C	2.085660	-0.026125	-0.561539
C77	C	1.585628	-0.526169	-0.951814
C78	C	2.085628	-0.026169	-0.451814
C79	C	1.451293	-0.402785	-0.951827
C80	C	1.951293	0.097215	-0.451827
C81	C	1.451320	-0.402747	-1.061550
C82	C	1.951320	0.097253	-0.561550
C83	C	1.652849	-0.587794	-1.116391
C84	C	2.152849	-0.087794	-0.616391
C85	C	1.720006	-0.649508	-1.061528
C86	C	2.220006	-0.149508	-0.561528
C87	C	1.719974	-0.649551	-0.951803
C88	C	2.219974	-0.149551	-0.451803
C89	C	1.652786	-0.587881	-0.896943
C90	C	2.152786	-0.087881	-0.396943
C91	C	1.518337	-0.464649	-0.233178
C92	C	2.018337	0.035351	0.266822
C93	C	1.518509	-0.464416	-0.116402
C94	C	2.018509	0.035584	0.383598
H95	H	0.819856	-0.588185	-0.640354
H96	H	1.319856	-0.088185	-0.140354
H97	H	1.396593	-0.352574	-0.907151
H98	H	1.896593	0.147426	-0.407151
H99	H	0.919313	-0.352602	-0.384478
H100	H	1.419313	0.147398	0.115522
C101	C	1.652887	-0.587755	-1.237090
C102	C	2.152887	-0.087755	-0.737090
N103	N	1.652914	-0.587725	-1.328000
N104	N	2.152914	-0.087725	-0.828000
H105	H	1.774703	-0.699722	-1.106202
H106	H	2.274703	-0.199722	-0.606202
H107	H	1.774650	-0.699807	-0.907136
H108	H	2.274650	-0.199807	-0.407136
H109	H	0.919415	-0.700218	-0.762019
H110	H	1.419415	-0.200218	-0.262019
C111	C	1.134165	-0.717848	-0.781160
C112	C	1.634165	-0.217848	-0.281160
N113	N	1.179628	-0.769016	-0.836732
N114	N	1.679628	-0.269016	-0.336732
C115	C	1.249347	-0.588130	-0.640287
C116	C	1.749347	-0.088130	-0.140287
N117	N	1.340258	-0.588112	-0.640289
N118	N	1.840258	-0.088112	-0.140289
H119	H	1.118382	-0.352583	-0.384451
H120	H	1.618382	0.147417	0.115549
C121	C	1.652749	-0.587938	-0.776242
C122	C	2.152749	-0.087938	-0.276242
N123	N	1.652725	-0.587980	-0.685332
N124	N	2.152725	-0.087980	-0.185332
H125	H	1.396644	-0.352495	-1.106221
H126	H	1.896644	0.147505	-0.606221
