data_functionalizedCrystal
_audit_creation_method	'MofGen! by Chris Wilmer'
_symmetry_space_group_name_H-M	'P1'
_symmetry_Int_Tables_number	1
_symmetry_cell_setting	triclinic
loop_
_symmetry_equiv_pos_as_xyz
  x,y,z
_cell_length_a	19.188937
_cell_length_b	19.188928
_cell_length_c	11.295663
_cell_angle_alpha	85.934455
_cell_angle_beta	94.088236
_cell_angle_gamma	83.145620
loop_
_atom_site_label
_atom_site_type_symbol
_atom_site_fract_x
_atom_site_fract_y
_atom_site_fract_z
O1	O	-0.091894	-0.921409	-0.099484
O2	O	0.408106	-0.421409	0.400516
O3	O	-0.103625	-0.718103	-0.099386
O4	O	0.396375	-0.218103	0.400614
O5	O	0.003896	-0.825621	-0.099427
O6	O	0.503896	-0.325621	0.400573
O7	O	-0.199415	-0.813891	-0.099443
O8	O	0.300585	-0.313891	0.400557
O9	O	0.013324	-0.835045	0.098615
O10	O	0.513324	-0.335045	0.598615
O11	O	-0.094197	-0.727526	0.098656
O12	O	0.405803	-0.227526	0.598656
O13	O	-0.082466	-0.930833	0.098557
O14	O	0.417534	-0.430833	0.598557
Cu15	Cu	-0.087470	-0.830040	0.116689
Cu16	Cu	0.412530	-0.330040	0.616689
Cu17	Cu	-0.098621	-0.818896	-0.117518
Cu18	Cu	0.401379	-0.318896	0.382482
O19	O	-0.189987	-0.823315	0.098598
O20	O	0.310013	-0.323315	0.598598
C21	C	-0.098531	-0.696804	-0.000352
C22	C	0.401469	-0.196804	0.499648
C23	C	-0.097389	-0.619301	-0.000314
C24	C	0.402611	-0.119301	0.499686
C25	C	0.034621	-0.829953	-0.000406
C26	C	0.534621	-0.329953	0.499594
C27	C	0.112126	-0.828810	-0.000404
C28	C	0.612126	-0.328810	0.499596
C29	C	-0.160481	-0.574378	-0.000335
C30	C	0.339519	-0.074378	0.499665
C31	C	-0.159410	-0.501554	-0.000342
C32	C	0.340590	-0.001554	0.499658
C33	C	-0.095245	-0.473655	-0.000352
C34	C	0.404755	0.026345	0.499648
C35	C	-0.032144	-0.518589	-0.000325
C36	C	0.467856	-0.018589	0.499675
C37	C	-0.033216	-0.591412	-0.000306
C38	C	0.466784	-0.091412	0.499694
N39	N	-0.049410	-0.362465	-0.067789
N40	N	0.450590	0.137535	0.432211
N41	N	-0.048396	-0.293285	-0.067809
N42	N	0.451604	0.206715	0.432191
C43	C	-0.092011	-0.254244	-0.000406
C44	C	0.407989	0.245756	0.499594
N45	N	-0.136690	-0.286993	0.067003
N46	N	0.363310	0.213007	0.567003
N47	N	-0.137707	-0.356179	0.067018
N48	N	0.362293	0.143821	0.567018
C49	C	-0.094076	-0.394691	-0.000372
C50	C	0.405924	0.105309	0.499628
C51	C	-0.153947	-0.130355	-0.000432
C52	C	0.346053	0.369645	0.499568
C53	C	-0.152873	-0.057530	-0.000432
C54	C	0.347127	0.442470	0.499568
C55	C	-0.025606	-0.074566	-0.000427
C56	C	0.474394	0.425434	0.499573
C57	C	-0.026681	-0.147390	-0.000416
C58	C	0.473319	0.352610	0.499584
C59	C	-0.090853	-0.175280	-0.000424
C60	C	0.409147	0.324720	0.499576
C61	C	0.670524	-0.825818	0.107535
C62	C	1.170524	-0.325818	0.607535
C63	C	0.597700	-0.826884	0.107539
C64	C	1.097700	-0.326884	0.607539
C65	C	0.556141	-0.822283	-0.000413
C66	C	1.056141	-0.322283	0.499587
C67	C	0.587410	-0.816598	-0.108377
C68	C	1.087410	-0.316598	0.391623
C69	C	0.660232	-0.815525	-0.108379
C70	C	1.160232	-0.315525	0.391621
N71	N	0.443291	-0.859874	-0.080785
N72	N	0.943291	-0.359874	0.419215
N73	N	0.374113	-0.860895	-0.080776
N74	N	0.874113	-0.360895	0.419224
C75	C	0.336731	-0.825515	-0.000414
C76	C	0.836731	-0.325515	0.499586
N77	N	0.371142	-0.789084	0.079957
N78	N	0.871142	-0.289084	0.579957
N79	N	0.440327	-0.788066	0.079951
N80	N	0.940327	-0.288066	0.579951
C81	C	0.477177	-0.823446	-0.000423
C82	C	0.977177	-0.323446	0.499577
C83	C	0.226506	-0.832350	0.107549
C84	C	0.726506	-0.332350	0.607549
C85	C	0.153680	-0.833412	0.107549
C86	C	0.653680	-0.333412	0.607549
C87	C	0.143391	-0.823133	-0.108371
C88	C	0.643391	-0.323133	0.391629
C89	C	0.216216	-0.822065	-0.108368
C90	C	0.716216	-0.322065	0.391632
C91	C	0.257769	-0.826677	-0.000405
C92	C	0.757769	-0.326677	0.499595
C93	C	0.779288	-0.818986	-0.000421
C94	C	1.279288	-0.318986	0.499579
C95	C	0.701785	-0.820137	-0.000416
C96	C	1.201785	-0.320137	0.499584
C97	C	-0.087562	0.047868	-0.000458
C98	C	0.412438	0.547868	0.499542
C99	C	-0.088707	-0.029637	-0.000440
C100	C	0.411293	0.470363	0.499560
N101	N	-0.079627	-0.837884	0.281418
N102	N	0.420373	-0.337884	0.781418
N103	N	-0.106458	-0.811058	-0.282246
N104	N	0.393542	-0.311058	0.217754
C105	C	-0.023136	-0.894418	0.468382
C106	C	0.476864	-0.394418	0.968382
C107	C	-0.029068	-0.888475	0.343724
C108	C	0.470932	-0.388475	0.843724
C109	C	-0.124259	-0.793233	0.343778
C110	C	0.375741	-0.293233	0.843778
C111	C	-0.118326	-0.799176	0.468436
C112	C	0.381674	-0.299176	0.968436
C113	C	-0.067762	-0.849769	0.530734
C114	C	0.432238	-0.349769	1.030734
C115	C	-0.061827	-0.855708	0.655394
C116	C	0.438173	-0.355708	1.155394
C117	C	-0.157020	-0.760470	0.655445
C118	C	0.342980	-0.260470	1.155445
C119	C	-0.162952	-0.754528	0.530787
C120	C	0.337048	-0.254528	1.030787
H121	H	-0.212735	-0.597080	-0.000344
H122	H	0.287265	-0.097080	0.499656
O123	O	0.102961	-0.818524	-0.213185
O124	O	0.602961	-0.318524	0.286815
C125	C	0.052486	-0.758348	-0.219574
C126	C	0.552486	-0.258348	0.280426
H127	H	0.043331	-0.742863	-0.125811
H128	H	0.543331	-0.242863	0.374189
H129	H	0.000918	-0.770465	-0.265347
H130	H	0.500918	-0.270465	0.234653
H131	H	0.072395	-0.713057	-0.272728
H132	H	0.572395	-0.213057	0.227272
H133	H	-0.204122	-0.713337	0.480050
H134	H	0.295878	-0.213337	0.980050
O135	O	0.028065	-0.635093	-0.000086
O136	O	0.528065	-0.135093	0.499914
C137	C	0.036127	-0.682597	0.102472
C138	C	0.536127	-0.182597	0.602472
H139	H	0.003756	-0.659213	0.174158
H140	H	0.503756	-0.159213	0.674158
H141	H	0.094033	-0.692589	0.136900
H142	H	0.594033	-0.192589	0.636900
H143	H	0.017113	-0.734400	0.079289
H144	H	0.517113	-0.234400	0.579289
O145	O	0.036752	-0.047517	-0.000226
O146	O	0.536752	0.452483	0.499774
C147	C	0.080091	-0.075362	0.102332
C148	C	0.580091	0.424638	0.602332
H149	H	0.045979	-0.093793	0.174023
H150	H	0.545979	0.406207	0.674023
H151	H	0.111298	-0.032963	0.136751
H152	H	0.611298	0.467037	0.636751
H153	H	0.118041	-0.121844	0.079153
H154	H	0.618041	0.378156	0.579153
O155	O	0.266920	-0.836948	0.212389
O156	O	0.766920	-0.336948	0.712389
C157	C	0.317447	-0.897083	0.218804
C158	C	0.817447	-0.397083	0.718804
H159	H	0.298233	-0.936740	0.157515
H160	H	0.798233	-0.436740	0.657515
H161	H	0.325534	-0.921911	0.314273
H162	H	0.825534	-0.421911	0.814273
H163	H	0.369429	-0.881227	0.189813
H164	H	0.869429	-0.381227	0.689813
O165	O	0.710940	-0.830392	0.212366
O166	O	1.210940	-0.330392	0.712366
C167	C	0.761489	-0.890511	0.218803
C168	C	1.261489	-0.390511	0.718803
H169	H	0.742285	-0.930193	0.157555
H170	H	1.242285	-0.430193	0.657555
H171	H	0.769596	-0.915315	0.314286
H172	H	1.269596	-0.415315	0.814286
H173	H	0.813458	-0.874640	0.189776
H174	H	1.313458	-0.374640	0.689776
H175	H	0.128229	-0.838036	0.195459
H176	H	0.628229	-0.338036	0.695459
O177	O	0.014362	-0.931718	0.283076
O178	O	0.514362	-0.431718	0.783076
C179	C	0.053925	-0.890980	0.211103
C180	C	0.553925	-0.390980	0.711103
H181	H	0.025043	-0.835398	0.192413
H182	H	0.525043	-0.335398	0.692413
H183	H	0.060957	-0.915974	0.123444
H184	H	0.560957	-0.415974	0.623444
H185	H	0.107765	-0.888626	0.259250
H186	H	0.607765	-0.388626	0.759250
H187	H	-0.193356	-0.724113	0.706226
H188	H	0.306644	-0.224113	1.206226
H189	H	-0.165431	-0.752046	0.293039
H190	H	0.334569	-0.252046	0.793039
H191	H	-0.210789	-0.464970	-0.000355
H192	H	0.289211	0.035030	0.499645
O193	O	-0.214194	-0.013909	-0.000661
O194	O	0.285806	0.486091	0.499339
C195	C	-0.258050	-0.021679	-0.103219
C196	C	0.241950	0.478321	0.396781
H197	H	-0.224521	-0.043286	-0.174897
H198	H	0.275479	0.456714	0.325103
H199	H	-0.287847	0.031705	-0.137661
H200	H	0.212153	0.531705	0.362339
H201	H	-0.297244	-0.059739	-0.080032
H202	H	0.202756	0.440261	0.419968
O203	O	0.030249	-0.491610	-0.000288
O204	O	0.530249	0.008390	0.499712
C205	C	0.085707	-0.546880	-0.000300
C206	C	0.585707	-0.046880	0.499700
H207	H	0.068075	-0.598067	0.037212
H208	H	0.568075	-0.098067	0.537212
H209	H	0.133258	-0.534514	0.057191
H210	H	0.633258	-0.034514	0.557191
H211	H	0.100634	-0.552749	-0.095307
H212	H	0.600634	-0.052749	0.404693
H213	H	-0.020654	-0.896901	0.706115
H214	H	0.479346	-0.396901	1.206115
O215	O	-0.216271	-0.157479	-0.000631
O216	O	0.283729	0.342521	0.499369
C217	C	-0.225578	-0.194252	-0.103174
C218	C	0.274422	0.305748	0.396826
H219	H	-0.192565	-0.173743	-0.174873
H220	H	0.307435	0.326257	0.325127
H221	H	-0.283510	-0.185919	-0.137594
H222	H	0.216490	0.314081	0.362406
H223	H	-0.208188	-0.252829	-0.079974
H224	H	0.291812	0.247171	0.420026
H225	H	0.024695	-0.183968	-0.000406
H226	H	0.524695	0.316032	0.499594
H227	H	0.018040	-0.935608	0.519106
H228	H	0.518040	-0.435608	1.019106
H229	H	0.553567	-0.812850	-0.196273
H230	H	1.053567	-0.312850	0.303727
O231	O	0.567439	-0.832426	0.212514
O232	O	1.067439	-0.332426	0.712514
C233	C	0.619727	-0.836239	0.307802
C234	C	1.119727	-0.336239	0.807802
H235	H	0.673087	-0.856076	0.276152
H236	H	1.173087	-0.356076	0.776152
H237	H	0.606812	-0.874024	0.383294
H238	H	1.106812	-0.374024	0.883294
H239	H	0.621564	-0.781703	0.341013
H240	H	1.121564	-0.281703	0.841013
H241	H	0.685683	-0.810899	-0.196288
H242	H	1.185683	-0.310899	0.303712
H243	H	0.241669	-0.817444	-0.196273
H244	H	0.741669	-0.317444	0.303727
