data_functionalizedCrystal
_audit_creation_method	'MofGen! by Chris Wilmer'
_symmetry_space_group_name_H-M	'P1'
_symmetry_Int_Tables_number	1
_symmetry_cell_setting	triclinic
loop_
_symmetry_equiv_pos_as_xyz
  x,y,z
_cell_length_a	19.077212
_cell_length_b	13.031981
_cell_length_c	19.076919
_cell_angle_alpha	95.212724
_cell_angle_beta	90.114942
_cell_angle_gamma	99.167303
loop_
_atom_site_label
_atom_site_type_symbol
_atom_site_fract_x
_atom_site_fract_y
_atom_site_fract_z
Zn1	Zn	1.027259	-0.379268	0.406872
Zn2	Zn	1.018199	-0.546697	0.274483
Zn3	Zn	0.914519	-0.378718	0.284696
Zn4	Zn	0.894878	-0.560632	0.385977
O5	O	0.963714	-0.466329	0.338007
O6	O	1.124849	-0.395876	0.393780
O7	O	1.008874	-0.518351	0.178046
O8	O	0.941486	-0.232590	0.313922
O9	O	1.118193	-0.518885	0.296515
O10	O	1.024315	-0.232994	0.403684
O11	O	0.932701	-0.394938	0.185550
O12	O	0.813122	-0.408451	0.293661
O13	O	0.908010	-0.542636	0.486541
O14	O	0.798691	-0.542103	0.368072
O15	O	1.005270	-0.409389	0.501892
O16	O	0.989829	-0.694746	0.276254
O17	O	0.899225	-0.704985	0.358169
C18	C	0.780291	-0.476730	0.329708
C19	C	0.701819	-0.481206	0.326172
C20	C	0.259732	-0.513267	0.300848
C21	C	0.333465	-0.509055	0.304165
C22	C	0.373787	-0.443019	0.356528
C23	C	0.340373	-0.381183	0.405572
C24	C	0.266641	-0.385390	0.402251
C25	C	0.594673	-0.423577	0.371895
C26	C	0.668409	-0.419377	0.375214
C27	C	0.661496	-0.547249	0.273806
C28	C	0.587763	-0.551454	0.270492
C29	C	0.554356	-0.489614	0.319533
N30	N	0.449155	-0.438715	0.359922
N31	N	0.478990	-0.493913	0.316136
C32	C	0.941431	-0.737774	0.313852
C33	C	0.931962	-0.853897	0.303545
C34	C	0.968693	-0.905789	0.343402
C35	C	0.958907	-1.025808	0.332750
C36	C	1.147853	-0.455887	0.346339
C37	C	1.226322	-0.451438	0.349889
C38	C	0.955459	-0.477628	0.520282
C39	C	0.951942	-0.482443	0.597956
C40	C	0.986102	-0.193823	0.362273
C41	C	0.995643	-0.077698	0.372613
C42	C	0.971983	-0.454995	0.156450
C43	C	0.975661	-0.449878	0.078808
C44	C	1.000925	-0.415334	0.642441
C45	C	0.997612	-0.419855	0.715425
C46	C	0.945318	-0.491491	0.743921
C47	C	0.896330	-0.558604	0.699431
C48	C	0.899641	-0.554077	0.626449
C49	C	0.929984	-0.512464	0.961336
C50	C	0.926678	-0.516988	1.034323
C51	C	1.027959	-0.378237	1.050312
C52	C	1.031268	-0.373721	0.977328
C53	C	0.982278	-0.440829	0.932844
N54	N	0.941931	-0.496116	0.818522
N55	N	0.985662	-0.436199	0.858245
H56	H	0.239441	-0.335038	0.442184
H57	H	1.034334	-1.033276	0.414628
H58	H	0.859748	-0.608714	0.590230
C59	C	0.384730	-0.308538	0.463170
N60	N	0.418140	-0.253823	0.506555
H61	H	1.067843	-0.323600	1.086538
C62	C	0.698252	-0.615257	0.219857
N63	N	0.725937	-0.666478	0.179217
H64	H	0.893267	-0.898324	0.261538
H65	H	0.226906	-0.567046	0.258211
C66	C	1.058452	-0.336527	0.611102
N67	N	1.101781	-0.277163	0.587500
H68	H	0.701238	-0.365595	0.417854
C69	C	0.370212	-0.577073	0.250215
N70	N	0.397889	-0.628307	0.209577
H71	H	0.554937	-0.605227	0.227851
C72	C	0.876091	-0.586283	0.912413
N73	N	0.835495	-0.641885	0.875562
H74	H	0.567481	-0.373227	0.411831
H75	H	0.884092	-0.575325	1.057522
C76	C	0.838801	-0.637395	0.730781
N77	N	0.795468	-0.696741	0.754392
H78	H	1.037500	-0.365210	0.751642
C79	C	1.020965	-0.845775	0.400156
N80	N	1.060339	-0.800574	0.442904
C81	C	0.906650	-1.085816	0.275977
N82	N	0.867298	-1.131015	0.233209
C83	C	1.088788	-0.294905	0.945988
N84	N	1.132113	-0.235539	0.922383
