data_functionalizedCrystal
_audit_creation_method	'MofGen! by Chris Wilmer'
_symmetry_space_group_name_H-M	'P1'
_symmetry_Int_Tables_number	1
_symmetry_cell_setting	triclinic
loop_
_symmetry_equiv_pos_as_xyz
  x,y,z
_cell_length_a	14.853567
_cell_length_b	14.971486
_cell_length_c	13.448316
_cell_angle_alpha	89.996136
_cell_angle_beta	90.002106
_cell_angle_gamma	96.375470
loop_
_atom_site_label
_atom_site_type_symbol
_atom_site_fract_x
_atom_site_fract_y
_atom_site_fract_z
O1	O	1.196344	-0.116778	0.082624
O2	O	0.933882	-0.130689	0.082641
O3	O	1.072148	0.006465	0.082625
O4	O	1.058078	-0.253932	0.082640
O5	O	1.072134	0.006466	-0.082759
O6	O	0.933868	-0.130688	-0.082743
O7	O	1.196330	-0.116777	-0.082760
Cu8	Cu	1.065098	-0.123732	-0.097852
Cu9	Cu	1.065114	-0.123734	0.097733
O10	O	1.058065	-0.253931	-0.082744
C11	C	0.900287	-0.130058	-0.000049
C12	C	0.800203	-0.128169	-0.000043
N13	N	1.065093	-0.123731	-0.235417
C14	C	1.071512	0.039791	-0.000067
C15	C	1.069626	0.139088	-0.000066
C16	C	0.387686	-0.038712	-0.000070
C17	C	0.366375	-0.201655	-0.000060
C18	C	0.460408	-0.203431	-0.000056
C19	C	0.518085	-0.122846	-0.000058
C20	C	0.481728	-0.040486	-0.000064
C21	C	0.496772	-0.285790	-0.000041
C22	C	0.590811	-0.287569	-0.000036
C23	C	0.648490	-0.206984	-0.000046
C24	C	0.612127	-0.124620	-0.000052
C25	C	0.669804	-0.044035	-0.000054
C26	C	0.633444	0.038330	-0.000068
C27	C	0.539407	0.040100	-0.000073
C28	C	0.742527	-0.208754	-0.000040
C29	C	0.763847	-0.045809	-0.000048
C30	C	1.229926	-0.117408	-0.000068
C31	C	1.330009	-0.119297	-0.000068
C32	C	1.058701	-0.287257	-0.000050
C33	C	1.060586	-0.386554	-0.000045
C34	C	1.150854	0.196299	-0.000072
C35	C	1.149076	0.289598	-0.000062
C36	C	1.066071	0.325686	-0.000053
C37	C	0.984838	0.268468	-0.000044
C38	C	0.986616	0.175170	-0.000047
C39	C	0.981137	0.462931	-0.000040
C40	C	0.979359	0.556235	-0.000039
C41	C	1.143598	0.577360	-0.000055
C42	C	1.145376	0.484062	-0.000058
C43	C	1.064142	0.426850	-0.000051
C44	C	1.119825	-0.178082	-0.287453
C45	C	1.119837	-0.178078	-0.391556
C46	C	1.065110	-0.123727	-0.443621
C47	C	1.010376	-0.069370	-0.391577
C48	C	1.010370	-0.069370	-0.287476
C49	C	1.010390	-0.069376	-0.608558
C50	C	1.010394	-0.069377	-0.712666
C51	C	1.119857	-0.178084	-0.712638
C52	C	1.119851	-0.178084	-0.608536
C53	C	1.065115	-0.123728	-0.556500
N54	N	1.065126	-0.123728	0.235297
H55	H	0.810802	0.019814	-0.000053
Br56	Br	0.866708	0.605211	-0.000031
Br57	Br	0.288100	-0.311014	-0.000039
H58	H	1.164410	-0.222345	-0.566148
Br59	Br	1.194143	-0.251852	-0.783257
H60	H	1.164407	-0.222334	-0.433920
Br61	Br	0.870890	0.385287	-0.000027
Br62	Br	0.936126	0.004389	-0.783326
Br63	Br	0.936123	0.004412	-0.537937
Br64	Br	0.418495	-0.395147	-0.000017
Br65	Br	0.936101	0.004408	-0.216854
H66	H	1.215220	0.336176	-0.000069
H67	H	0.965821	-0.025112	-0.433977
H68	H	1.218446	0.166924	-0.000085
Br69	Br	0.640149	-0.399347	-0.000018
H70	H	1.212967	0.454683	-0.000072
Br71	Br	0.791871	-0.320525	-0.000011
Br72	Br	0.711730	0.147690	-0.000059
Br73	Br	0.872186	0.317442	-0.000015
Br74	Br	0.876374	0.097525	-0.000031
H75	H	0.509793	0.107157	-0.000108
Br76	Br	0.338344	0.073064	-0.000097
Br77	Br	1.194098	-0.251851	-0.216804
H78	H	1.209742	0.623946	-0.000058
