data_functionalizedCrystal
_audit_creation_method	'MofGen! by Chris Wilmer'
_symmetry_space_group_name_H-M	'P1'
_symmetry_Int_Tables_number	1
_symmetry_cell_setting	triclinic
loop_
_symmetry_equiv_pos_as_xyz
  x,y,z
_cell_length_a	8.559649
_cell_length_b	8.597304
_cell_length_c	13.448316
_cell_angle_alpha	82.293562
_cell_angle_beta	89.992781
_cell_angle_gamma	77.624625
loop_
_atom_site_label
_atom_site_type_symbol
_atom_site_fract_x
_atom_site_fract_y
_atom_site_fract_z
O1	O	2.119302	-0.053140	-0.078135
O2	O	1.655363	0.027761	-0.085068
O3	O	1.896461	-0.242258	-0.061932
O4	O	1.878204	0.216879	-0.101272
O5	O	1.896430	-0.242269	0.103453
O6	O	1.655332	0.027750	0.080317
O7	O	2.119271	-0.053151	0.087249
Cu8	Cu	1.887299	-0.012701	0.098884
Cu9	Cu	1.887335	-0.012688	-0.096703
O10	O	1.878173	0.216868	0.064113
C11	C	1.595913	0.033886	-0.002901
C12	C	1.418819	0.052136	-0.004465
C13	C	1.894483	-0.300499	0.025748
C14	C	1.888619	-0.474020	0.040610
C15	C	2.178721	-0.059276	0.005080
C16	C	2.355816	-0.077525	0.006638
C17	C	1.880151	0.275109	-0.023569
C18	C	1.886015	0.448630	-0.038438
N19	N	1.887285	-0.012713	0.236449
N20	N	1.887362	-0.012691	-0.234267
C21	C	1.994077	-0.132238	0.298731
C22	C	1.994087	-0.132240	0.402834
C23	C	1.887311	-0.012710	0.444654
C24	C	1.780507	0.106821	0.382364
C25	C	1.780491	0.106815	0.278263
C26	C	1.780552	0.106826	0.599344
C27	C	1.780570	0.106834	0.703451
C28	C	1.994148	-0.132230	0.723915
C29	C	1.994131	-0.132235	0.619814
C30	C	1.887329	-0.012702	0.557531
H31	H	1.437368	-0.202504	0.017346
C32	C	1.885557	-0.563884	0.147414
C33	C	1.748175	-0.507138	0.216945
C34	C	1.745114	-0.597001	0.323747
C35	C	1.879435	-0.743611	0.361017
C36	C	2.016827	-0.800364	0.291485
C37	C	2.019889	-0.710500	0.184683
H38	H	1.648734	-0.398602	0.189357
H39	H	1.643406	-0.554988	0.375219
H40	H	1.877169	-0.810133	0.440078
H41	H	2.116269	-0.908899	0.319074
H42	H	2.121596	-0.752514	0.133211
H43	H	1.888269	-0.484843	-0.117489
C44	C	2.111535	-0.263726	0.252736
C45	C	2.228996	-0.395206	0.321251
C46	C	2.346454	-0.526702	0.275260
C47	C	2.346450	-0.526718	0.160754
C48	C	2.228984	-0.395233	0.092232
C49	C	2.111526	-0.263737	0.138223
H50	H	2.229003	-0.395198	0.406021
H51	H	2.433410	-0.624036	0.325985
H52	H	2.433399	-0.624059	0.126709
H53	H	2.228976	-0.395241	0.007462
H54	H	2.024570	-0.166404	0.087498
H55	H	2.081044	-0.229567	0.453545
C56	C	2.111583	-0.263714	0.573807
C57	C	2.106135	-0.441784	0.603382
C58	C	2.223584	-0.573265	0.557374
C59	C	2.346481	-0.526677	0.481791
C60	C	2.351935	-0.348598	0.452212
C61	C	2.234486	-0.217117	0.498220
H62	H	2.015155	-0.476279	0.659337
H63	H	2.219547	-0.705091	0.579271
H64	H	2.433424	-0.624007	0.447733
H65	H	2.442915	-0.314103	0.396258
H66	H	2.238523	-0.085291	0.476324
C67	C	2.111625	-0.263722	0.792425
C68	C	2.047460	-0.376058	0.873631
C69	C	2.164938	-0.507539	0.942145
C70	C	2.346580	-0.526683	0.929454
C71	C	2.410754	-0.414343	0.848245
C72	C	2.293277	-0.282863	0.779730
H73	H	1.912989	-0.361890	0.883028
H74	H	2.117431	-0.590700	1.002262
H75	H	2.433544	-0.624013	0.980173
H76	H	2.545225	-0.428512	0.838847
H77	H	2.340784	-0.199702	0.719613
H78	H	1.337275	0.177105	-0.015183
H79	H	1.693620	0.204166	0.737494
H80	H	1.693576	0.204159	0.548636
H81	H	1.693560	0.204140	0.416419
H82	H	1.693528	0.204143	0.227553
