data_functionalizedCrystal
_audit_creation_method	'MofGen! by Chris Wilmer'
_symmetry_space_group_name_H-M	'P1'
_symmetry_Int_Tables_number	1
_symmetry_cell_setting	triclinic
loop_
_symmetry_equiv_pos_as_xyz
  x,y,z
_cell_length_a	12.759401
_cell_length_b	11.169416
_cell_length_c	12.759401
_cell_angle_alpha	90.004984
_cell_angle_beta	90.006940
_cell_angle_gamma	90.011865
loop_
_atom_site_label
_atom_site_type_symbol
_atom_site_fract_x
_atom_site_fract_y
_atom_site_fract_z
Zn1	Zn	1.606153	-0.477968	0.594041
Zn2	Zn	1.606100	-0.678618	0.418370
Zn3	Zn	1.430495	-0.477953	0.418376
Zn4	Zn	1.430457	-0.678613	0.594007
O5	O	1.518301	-0.578288	0.506199
O6	O	1.753167	-0.504593	0.570749
O7	O	1.582800	-0.651995	0.271350
O8	O	1.453834	-0.310005	0.441695
O9	O	1.753128	-0.652009	0.441685
O10	O	1.582889	-0.310016	0.570755
O11	O	1.453783	-0.504567	0.271355
O12	O	1.283469	-0.504562	0.441663
O13	O	1.453770	-0.652001	0.741033
O14	O	1.283441	-0.651986	0.570698
O15	O	1.582853	-0.504588	0.741058
O16	O	1.582763	-0.846567	0.441652
O17	O	1.453719	-0.846563	0.570692
C18	C	1.245334	-0.578273	0.506178
C19	C	1.128557	-0.578296	0.506194
C20	C	1.073708	-0.655176	0.573277
C21	C	0.963984	-0.655181	0.573298
C22	C	0.963968	-0.501421	0.439144
C23	C	1.073690	-0.501411	0.439129
C24	C	1.518260	-0.890112	0.506191
C25	C	1.518338	-1.023512	0.506222
C26	C	1.792335	-0.578303	0.506220
C27	C	1.909111	-0.578310	0.506229
C28	C	1.518313	-0.578296	0.780232
C29	C	1.518318	-0.578299	0.897009
C30	C	1.518372	-0.265245	0.506230
C31	C	1.518402	-0.131845	0.506243
C32	C	1.585523	-0.501554	0.951885
C33	C	1.585514	-0.501552	1.061609
C34	C	1.451092	-0.655051	1.061571
C35	C	1.451096	-0.655046	0.951848
C36	C	1.518289	-0.578306	1.233231
C37	C	1.518304	-0.578302	1.116455
H38	H	0.919331	-0.717783	0.627925
C39	C	1.659445	-0.417137	1.121969
H40	H	1.699482	-0.371439	1.073590
H41	H	1.619271	-0.364838	1.164770
H42	H	1.705210	-0.463063	1.164773
C43	C	1.134064	-0.739741	0.647044
H44	H	1.207267	-0.728737	0.637421
H45	H	1.116106	-0.722313	0.717664
H46	H	1.116065	-0.820356	0.631540
C47	C	1.377168	-0.739467	0.891475
H48	H	1.386792	-0.728461	0.818275
H49	H	1.392518	-0.820111	0.909446
H50	H	1.306578	-0.721887	0.909447
C51	C	1.377164	-0.739475	1.121898
H52	H	1.386793	-0.728497	1.195104
H53	H	1.306577	-0.721909	1.103909
H54	H	1.392530	-0.820118	1.103907
H55	H	0.919281	-0.438826	0.384540
C56	C	1.134028	-0.416840	0.365332
H57	H	1.085638	-0.371064	0.325383
H58	H	1.176847	-0.364619	0.405595
H59	H	1.176812	-0.462672	0.319480
H60	H	1.640256	-0.439058	0.907238
