data_functionalizedCrystal
_audit_creation_method	'MofGen! by Chris Wilmer'
_symmetry_space_group_name_H-M	'P1'
_symmetry_Int_Tables_number	1
_symmetry_cell_setting	triclinic
loop_
_symmetry_equiv_pos_as_xyz
  x,y,z
_cell_length_a	21.295419
_cell_length_b	21.295417
_cell_length_c	17.640968
_cell_angle_alpha	78.765192
_cell_angle_beta	78.778187
_cell_angle_gamma	90.045308
loop_
_atom_site_label
_atom_site_type_symbol
_atom_site_fract_x
_atom_site_fract_y
_atom_site_fract_z
Zn1	Zn	1.034311	-0.178377	-0.446934
Zn2	Zn	1.012930	-0.304942	-0.314736
Zn3	Zn	0.907755	-0.199714	-0.314761
Zn4	Zn	0.928995	-0.283648	-0.446880
O5	O	0.970998	-0.241670	-0.380828
O6	O	1.119566	-0.195148	-0.429410
O7	O	0.981141	-0.308824	-0.204121
O8	O	0.924602	-0.108788	-0.332327
O9	O	1.103857	-0.288135	-0.332284
O10	O	1.017582	-0.093112	-0.429434
O11	O	0.903869	-0.231513	-0.204139
O12	O	0.822481	-0.210866	-0.332274
O13	O	0.960803	-0.251842	-0.557505
O14	O	0.838086	-0.272532	-0.429342
O15	O	1.038178	-0.174500	-0.557545
O16	O	1.001737	-0.390212	-0.332232
O17	O	0.940070	-0.374567	-0.429318
C18	C	0.807442	-0.241704	-0.380806
C19	C	0.737476	-0.241730	-0.380815
C20	C	0.712824	-0.193365	-0.431466
C21	C	0.647082	-0.193348	-0.431469
C22	C	0.605996	-0.241705	-0.380829
C23	C	0.630654	-0.290075	-0.330168
C24	C	0.696394	-0.290087	-0.330161
N25	N	0.501726	-0.297779	-0.374651
N26	N	0.439276	-0.297764	-0.374663
C27	C	0.407924	-0.241670	-0.380847
N28	N	0.441383	-0.185587	-0.387034
N29	N	0.503839	-0.185601	-0.387027
C30	C	0.534711	-0.241697	-0.380831
C31	C	0.311987	-0.193282	-0.431504
C32	C	0.246243	-0.193265	-0.431502
C33	C	0.229817	-0.289997	-0.330205
C34	C	0.295559	-0.290009	-0.330203
C35	C	0.336641	-0.241652	-0.380857
C36	C	0.970908	-0.405229	-0.380784
C37	C	0.970932	-0.475195	-0.380792
C38	C	1.003085	-0.516179	-0.330291
C39	C	1.003118	-0.581919	-0.330309
C40	C	0.970984	-0.606673	-0.380819
C41	C	0.938829	-0.565680	-0.431330
C42	C	0.938803	-0.499941	-0.431316
N43	N	0.916886	-0.708984	-0.386838
N44	N	0.916912	-0.771434	-0.386846
C45	C	0.971062	-0.804741	-0.380864
N46	N	1.025183	-0.773241	-0.374858
N47	N	1.025156	-0.710786	-0.374846
C48	C	0.971009	-0.677955	-0.380840
C49	C	1.003253	-0.917007	-0.330380
C50	C	1.003288	-0.982747	-0.330403
C51	C	0.938992	-0.966508	-0.431420
C52	C	0.938964	-0.900769	-0.431401
C53	C	0.971093	-0.876023	-0.380877
C54	C	1.135192	-0.241636	-0.380850
C55	C	1.205161	-0.241622	-0.380860
C56	C	1.004245	-0.208415	-0.587009
C57	C	1.018413	-0.194244	-0.674871
C58	C	0.971107	-0.077470	-0.380889
C59	C	0.971154	-0.007497	-0.380915
C60	C	0.863607	-0.348983	-0.963736
C61	C	0.876933	-0.335659	-1.046296
C62	C	0.957497	-0.255130	-1.046327
C63	C	0.944176	-0.268444	-0.963765
C64	C	0.897231	-0.315372	-0.922476
C65	C	0.977799	-0.234834	-0.922505
C66	C	0.964481	-0.248150	-0.839951
C67	C	0.917539	-0.295077	-0.798656
C68	C	0.883912	-0.328689	-0.839922
C69	C	1.024747	-0.187909	-0.963796
C70	C	1.058371	-0.154299	-0.922536
C71	C	1.045049	-0.167612	-0.839980
C72	C	0.998108	-0.214539	-0.798686
C73	C	1.078676	-0.134000	-0.798715
C74	C	1.065358	-0.147317	-0.716160
C75	C	0.984789	-0.227855	-0.716131
C76	C	0.937916	-0.274749	-0.175448
C77	C	0.923870	-0.288743	-0.087587
H78	H	0.746269	-0.153989	-0.472712
C79	C	1.012256	-0.517545	-0.196466
C80	C	1.038411	-0.488981	-0.274763
H81	H	1.034070	-0.500756	-0.162189
H82	H	0.968099	-0.508690	-0.184850
H83	H	1.016873	-0.562563	-0.189259
H84	H	1.033790	-0.443963	-0.281971
H85	H	1.082579	-0.497831	-0.286383
H86	H	0.995722	-0.216923	-1.079956
C87	C	0.553596	-0.150386	-0.476459
C88	C	0.619974	-0.140183	-0.487151
H89	H	0.536863	-0.117562	-0.510831
H90	H	0.544639	-0.190841	-0.487926
H91	H	0.534269	-0.149663	-0.423368
H92	H	0.639302	-0.140910	-0.540240
H93	H	0.628936	-0.099718	-0.475689
H94	H	0.716464	-0.329473	-0.288913
H95	H	0.825365	-0.387181	-0.930116
C96	C	1.059828	-0.228715	-1.082038
C97	C	1.039389	-0.173270	-1.054542
H98	H	1.068863	-0.219676	-1.138060
H99	H	1.097426	-0.242602	-1.063361
H100	H	1.027051	-0.261466	-1.063349
H101	H	1.072168	-0.140520	-1.073226
H102	H	1.001786	-0.159373	-1.073227
H103	H	1.029304	-0.615294	-0.289185
C104	C	0.856010	-0.825176	-0.442262
C105	C	0.903613	-0.855714	-0.486905
H106	H	0.834189	-0.797358	-0.476533
H107	H	0.826408	-0.856421	-0.407808
H108	H	0.875152	-0.801030	-0.412179
H109	H	0.884471	-0.879863	-0.516984
H110	H	0.933220	-0.824464	-0.521373
C111	C	1.086147	-0.844735	-0.319475
C112	C	1.038575	-0.889800	-0.274852
H113	H	1.107950	-0.827938	-0.285193
H114	H	1.115770	-0.864779	-0.353944
H115	H	1.066981	-0.810918	-0.349542
H116	H	1.057741	-0.923619	-0.244790
H117	H	1.008948	-0.869755	-0.240370
H118	H	0.946547	-0.266053	-0.682511
H119	H	0.912666	-0.585840	-0.472457
C120	C	0.958329	-0.330188	-0.680388
C121	C	0.902896	-0.309716	-0.707911
H122	H	0.949288	-0.339221	-0.624366
H123	H	0.972194	-0.367794	-0.699048
H124	H	0.991095	-0.297425	-0.699077
H125	H	0.870132	-0.342480	-0.689226
H126	H	0.889022	-0.272105	-0.689243
H127	H	0.226173	-0.153876	-0.472747
H128	H	0.912619	-0.466571	-0.472441
H129	H	0.345437	-0.153904	-0.472745
H130	H	1.029476	-1.016116	-0.289281
H131	H	0.912831	-0.986662	-0.472550
H132	H	1.116903	-0.095796	-0.832344
H133	H	1.096595	-0.116092	-0.956165
C134	C	0.805626	-0.406986	-0.848175
C135	C	0.832323	-0.380288	-0.794529
H136	H	0.773787	-0.438847	-0.820150
H137	H	0.786742	-0.374377	-0.880370
H138	H	0.838243	-0.425850	-0.880381
H139	H	0.799707	-0.361420	-0.762327
H140	H	0.851207	-0.412903	-0.762321
C141	C	0.795952	-0.416606	-1.037972
C142	C	0.839968	-0.372606	-1.091650
H143	H	0.773131	-0.439412	-1.065973
H144	H	0.818169	-0.445872	-1.005767
H145	H	0.766697	-0.394370	-1.005780
H146	H	0.869226	-0.394842	-1.123838
H147	H	0.817749	-0.343336	-1.123868
C148	C	1.146327	-0.066364	-0.724475
C149	C	1.102313	-0.110369	-0.670801
H150	H	1.169139	-0.043553	-0.696470
H151	H	1.175584	-0.088592	-0.756663
H152	H	1.124104	-0.037097	-0.756684
H153	H	1.124536	-0.139640	-0.638596
H154	H	1.073052	-0.088141	-0.638600
H155	H	0.196365	-0.329370	-0.288972
H156	H	0.315631	-0.329395	-0.288960
C157	C	0.522587	-0.333011	-0.285213
C158	C	0.585495	-0.343233	-0.274507
H159	H	0.494709	-0.365832	-0.250850
H160	H	0.510004	-0.292556	-0.273742
H161	H	0.520382	-0.333725	-0.338308
H162	H	0.587700	-0.342514	-0.221413
H163	H	0.598081	-0.383699	-0.285972
