data_functionalizedCrystal
_audit_creation_method	'MofGen! by Chris Wilmer'
_symmetry_space_group_name_H-M	'P1'
_symmetry_Int_Tables_number	1
_symmetry_cell_setting	triclinic
loop_
_symmetry_equiv_pos_as_xyz
  x,y,z
_cell_length_a	19.851628
_cell_length_b	17.052862
_cell_length_c	17.052862
_cell_angle_alpha	61.493325
_cell_angle_beta	90.004039
_cell_angle_gamma	70.263327
loop_
_atom_site_label
_atom_site_type_symbol
_atom_site_fract_x
_atom_site_fract_y
_atom_site_fract_z
Zr1	Zr	0.780734	0.816609	-0.200356
O2	O	0.706341	0.944510	-0.328494
O3	O	0.787160	0.665887	-0.146164
O4	O	0.823258	0.783686	-0.306972
O5	O	0.660401	0.860639	-0.057800
O6	O	0.934116	0.783675	-0.306956
O7	O	0.670243	0.826711	-0.167686
O8	O	0.869545	0.572954	-0.019301
O9	O	0.724973	1.071361	-0.345455
O10	O	0.892423	0.736325	-0.141055
O11	O	0.802345	0.761653	-0.059060
O12	O	0.844845	0.900347	-0.248390
O13	O	0.754767	0.925675	-0.166395
Zr14	Zr	0.941843	0.870703	-0.025075
Zr15	Zr	0.957541	0.816592	-0.200331
Zr16	Zr	0.765037	0.870720	-0.025100
Zr17	Zr	0.810450	1.018920	-0.227408
Zr18	Zr	0.912127	0.668391	0.001976
O19	O	0.935417	1.021425	-0.079267
O20	O	0.957736	0.944486	-0.328459
O21	O	0.684021	1.021449	-0.079302
O22	O	1.016237	0.742801	0.103063
O23	O	1.038556	0.665862	-0.146129
O24	O	0.764841	0.742826	0.103028
O25	O	1.062176	0.826673	-0.167632
O26	O	0.899319	0.903625	0.081541
O27	O	0.788461	0.903636	0.081525
O28	O	1.052334	0.860601	-0.057745
O29	O	0.865510	1.071347	-0.345436
O30	O	0.857067	0.615965	0.120005
O31	O	0.997605	0.615951	0.120024
O32	O	1.010082	0.572940	-0.019281
O33	O	0.712495	1.114372	-0.206150
O34	O	0.853033	1.114358	-0.206131
O35	O	0.877732	0.786965	0.022959
O36	O	0.967810	0.761637	-0.059037
O37	O	0.920232	0.925659	-0.166372
O38	O	0.830155	0.950987	-0.084376
C39	C	0.824119	0.590595	-0.078878
C40	C	0.811503	0.504709	-0.067394
C41	C	0.640131	0.843677	-0.112746
C42	C	0.565072	0.843685	-0.112757
C43	C	0.964021	0.209730	-0.206238
C44	C	0.975872	0.290427	-0.217034
C45	C	0.934781	0.344001	-0.179624
C46	C	0.881837	0.316871	-0.131418
C47	C	0.869980	0.236170	-0.120627
C48	C	0.840741	0.370441	-0.094014
C49	C	0.787796	0.343310	-0.045807
C50	C	0.775942	0.262617	-0.035017
C51	C	0.817033	0.209043	-0.072427
C52	C	0.852597	0.451142	-0.104805
C53	C	0.758556	0.477582	-0.019194
C54	C	0.746705	0.396884	-0.008398
C55	C	0.357780	0.933100	-0.171250
C56	C	0.330741	0.871490	-0.196752
C57	C	0.427659	0.843664	-0.112729
C58	C	0.320960	0.905276	-0.087243
C59	C	0.294922	0.843651	-0.112705
C60	C	0.401613	0.782039	-0.138277
C61	C	0.391828	0.815853	-0.028727
C62	C	0.364829	0.754173	-0.054200
C63	C	0.504125	0.843673	-0.112746
C64	C	0.218460	0.843633	-0.112688
C65	C	1.082446	0.843634	-0.112685
C66	C	1.157505	0.843627	-0.112675
C67	C	0.880924	0.775971	-0.331934
C68	C	0.887588	0.753000	-0.406335
C69	C	0.898459	1.096716	-0.146553
C70	C	0.911074	1.182603	-0.158037
C71	C	0.807021	1.030726	-0.840175
C72	C	0.800756	1.052312	-0.770274
C73	C	0.822463	0.977486	-0.679287
C74	C	0.850437	0.881070	-0.658206
C75	C	0.856698	0.859482	-0.728114
C76	C	0.872140	0.806242	-0.567225
C77	C	0.900114	0.709826	-0.546145
C78	C	0.906374	0.688242	-0.616047
C79	C	0.884666	0.763068	-0.707035
C80	C	0.865879	0.827830	-0.497317
C81	C	0.915556	0.656586	-0.385256
C82	C	0.921821	0.635000	-0.455157
C83	C	0.841654	0.911340	0.106503
C84	C	0.834990	0.934312	0.180904
C85	C	1.045276	0.590574	-0.078847
C86	C	1.107720	0.504680	-0.067353
C87	C	0.804484	0.658280	0.140341
C88	C	0.785204	0.595365	0.226226
C89	C	1.025641	0.658258	0.140371
C90	C	1.081421	0.595336	0.226267
C91	C	0.696936	1.029053	-0.365803
C92	C	0.641156	1.091976	-0.451698
C93	C	0.677301	1.096738	-0.146584
C94	C	0.614857	1.182632	-0.158078
C95	C	0.918094	1.029032	-0.365772
C96	C	0.937373	1.091947	-0.451657
C97	C	1.097694	0.451128	-0.104775
C98	C	1.156363	0.370428	-0.093992
C99	C	1.225056	0.343277	-0.045782
C100	C	1.235082	0.396837	-0.008360
C101	C	1.176415	0.477540	-0.019148
C102	C	0.815501	0.579034	0.309378
C103	C	0.797385	0.519932	0.390082
C104	C	0.748975	0.477156	0.387631
C105	C	0.718674	0.493492	0.304469
C106	C	0.736787	0.552599	0.223767
C107	C	1.154643	0.552566	0.223803
C108	C	1.207063	0.493453	0.304503
C109	C	1.186259	0.477106	0.387666
C110	C	1.113030	0.519883	0.390127
C111	C	1.060612	0.579000	0.309427
C112	C	0.567936	1.134755	-0.449236
C113	C	0.515519	1.193893	-0.529939
C114	C	0.536324	1.210245	-0.613102
C115	C	0.609552	1.167462	-0.615562
C116	C	0.661968	1.108331	-0.534861
C117	C	0.624885	1.236189	-0.120665
C118	C	0.566221	1.316906	-0.131469
C119	C	0.497529	1.344059	-0.179683
C120	C	0.487502	1.290496	-0.217101
C121	C	0.546166	1.209786	-0.206302
C122	C	0.985785	1.134705	-0.449177
C123	C	1.003914	1.193812	-0.529867
C124	C	0.973625	1.210164	-0.613037
C125	C	0.925211	1.167399	-0.615514
C126	C	0.907087	1.108288	-0.534825
H127	H	0.895705	0.473224	-0.144055
C128	C	0.703461	0.570543	0.132303
N129	N	0.678358	0.584052	0.063414
H130	H	0.449766	1.409781	-0.188470
H131	H	1.228948	0.428967	0.453370
C132	C	0.700444	1.206342	-0.067630
N133	N	0.757355	1.183871	-0.027688
H134	H	1.171596	0.565865	0.156096
C135	C	0.632424	1.185449	-0.707050
N136	N	0.649649	1.198991	-0.775961
C137	C	0.937135	0.582181	-0.592854
N138	N	0.960303	0.502295	-0.575383
H139	H	0.431565	1.312617	-0.256357
C140	C	1.287609	0.446397	0.301777
N141	N	1.348275	0.410954	0.299722
C142	C	1.289583	0.254493	-0.033915
N143	N	1.338182	0.187618	-0.024976
H144	H	0.734232	0.429030	0.453351
H145	H	1.096101	0.506564	0.457849
C146	C	0.577265	1.375805	-0.090293
N147	N	0.585584	1.420164	-0.059277
C148	C	0.952585	0.528945	-0.431981
N149	N	0.975754	0.449064	-0.414526
H150	H	0.944434	0.409708	-0.188418
C151	C	0.980067	0.626040	0.312152
N152	N	0.919400	0.661471	0.314211
C153	C	0.742509	1.061265	-0.537583
N154	N	0.803173	1.025815	-0.539639
H155	H	0.817360	0.995067	-0.622373
C156	C	0.665427	0.446425	0.301790
N157	N	0.625325	0.410967	0.299775
C158	C	0.803992	0.120277	-0.060565
N159	N	0.794167	0.053421	-0.051637
C160	C	0.535120	1.150870	-0.247452
N161	N	0.526795	1.106497	-0.278448
H162	H	0.550981	1.121445	-0.381527
C163	C	1.145316	0.311519	-0.135154
N164	N	1.136993	0.267149	-0.166156
H165	H	1.291020	0.374718	0.030893
C166	C	1.019116	1.116725	-0.357697
N167	N	1.044229	1.103181	-0.288797
C168	C	0.993569	1.275193	-0.701791
N169	N	1.008591	1.324175	-0.768638
H170	H	0.455897	1.228718	-0.527918
H171	H	0.493636	1.258395	-0.678808
H172	H	1.043334	1.228628	-0.527832
H173	H	0.355542	1.008705	-0.220790
C174	C	0.939449	0.574272	-0.285170
N175	N	0.957448	0.512278	-0.209783
C176	C	0.891927	1.185357	-0.707006
N177	N	0.866867	1.198875	-0.775918
H178	H	0.854919	0.613858	0.311391
C179	C	0.769991	1.158366	-0.793467
N180	N	0.746821	1.238252	-0.810939
C181	C	1.034113	0.320262	-0.270055
N182	N	1.077984	0.342732	-0.309992
C183	C	0.717734	0.232738	0.018062
N184	N	0.673906	0.210220	0.058064
C185	C	0.688463	0.367034	0.044622
N186	N	0.644594	0.344551	0.084555
H187	H	0.867663	1.073479	-0.536857
H188	H	0.725095	0.521204	0.011265
C189	C	0.294828	0.903260	-0.292701
N190	N	0.267769	0.927201	-0.364968
C191	C	1.187454	0.536431	0.022035
N192	N	1.195773	0.580785	0.053058
C193	C	0.830731	0.501965	0.481551
N194	N	0.855850	0.488430	0.550444
H195	H	0.436362	0.729958	-0.159903
C196	C	0.368044	0.651919	0.012664
N197	N	0.370463	0.574902	0.063020
H198	H	0.843101	0.906333	-0.514490
C199	C	0.427735	0.784164	0.067190
N200	N	0.454784	0.760312	0.139432
C201	C	0.273895	0.975671	-0.058132
N202	N	0.238448	1.028697	-0.036211
H203	H	0.997469	0.166110	-0.236698
H204	H	0.889768	0.745498	-0.763959
H205	H	0.789346	1.091639	-0.914258
H206	H	1.041767	0.473229	-0.144043
