data_functionalizedCrystal
_audit_creation_method	'MofGen! by Chris Wilmer'
_symmetry_space_group_name_H-M	'P1'
_symmetry_Int_Tables_number	1
_symmetry_cell_setting	triclinic
loop_
_symmetry_equiv_pos_as_xyz
  x,y,z
_cell_length_a	14.044220
_cell_length_b	9.065218
_cell_length_c	12.503572
_cell_angle_alpha	86.429307
_cell_angle_beta	86.156832
_cell_angle_gamma	90.897619
loop_
_atom_site_label
_atom_site_type_symbol
_atom_site_fract_x
_atom_site_fract_y
_atom_site_fract_z
O1	O	0.133725	-1.983617	0.089327
O2	O	0.467059	-1.650283	0.422660
O3	O	0.800392	-1.316950	0.755994
O4	O	0.145138	-1.555597	0.089329
O5	O	0.478472	-1.222263	0.422662
O6	O	0.811805	-0.888930	0.755995
O7	O	0.001393	-1.763181	0.089317
O8	O	0.334726	-1.429848	0.422651
O9	O	0.668059	-1.096515	0.755984
O10	O	0.277471	-1.776032	0.089338
O11	O	0.610804	-1.442699	0.422672
O12	O	0.944138	-1.109366	0.756005
O13	O	0.012221	-1.747572	-0.089324
O14	O	0.345555	-1.414239	0.244009
O15	O	0.678888	-1.080905	0.577343
O16	O	0.155967	-1.539988	-0.089312
O17	O	0.489300	-1.206654	0.244021
O18	O	0.822634	-0.873321	0.577354
O19	O	0.144554	-1.968007	-0.089314
O20	O	0.477887	-1.634674	0.244019
O21	O	0.811221	-1.301341	0.577352
Cu22	Cu	0.151249	-1.752572	-0.105625
Cu23	Cu	0.484582	-1.419239	0.227709
Cu24	Cu	0.817916	-1.085906	0.561042
Cu25	Cu	0.138443	-1.771032	0.105639
Cu26	Cu	0.471776	-1.437699	0.438972
Cu27	Cu	0.805110	-1.104365	0.772306
O28	O	0.288300	-1.760423	-0.089303
O29	O	0.621633	-1.427090	0.244031
O30	O	0.954966	-1.093756	0.577364
C31	C	0.149456	-1.492684	0.000008
C32	C	0.482789	-1.159351	0.333342
C33	C	0.816122	-0.826017	0.666675
C34	C	0.146176	-1.328478	0.000009
C35	C	0.479509	-0.995144	0.333342
C36	C	0.812843	-0.661811	0.666675
C37	C	-0.028556	-1.749752	-0.000004
C38	C	0.304778	-1.416419	0.333330
C39	C	0.638111	-1.083085	0.666663
C40	C	-0.133925	-1.732975	-0.000005
C41	C	0.199408	-1.399642	0.333328
C42	C	0.532741	-1.066308	0.666662
C43	C	0.140236	-2.030920	0.000009
C44	C	0.473570	-1.697587	0.333342
C45	C	0.806903	-1.364254	0.666675
C46	C	0.143516	-2.195127	0.000015
C47	C	0.476849	-1.861794	0.333349
C48	C	0.810182	-1.528461	0.666682
C49	C	-0.326851	-1.702305	0.000011
C50	C	0.006482	-1.368971	0.333344
C51	C	0.339816	-1.035638	0.666677
C52	C	-0.383463	-1.821294	0.000013
C53	C	-0.050130	-1.487961	0.333347
C54	C	0.283204	-1.154627	0.666680
C55	C	-0.490813	-1.804228	0.000022
C56	C	-0.157480	-1.470895	0.333355
C57	C	0.175853	-1.137562	0.666689
C58	C	-0.219491	-1.719368	0.000002
C59	C	0.113843	-1.386034	0.333335
C60	C	0.447176	-1.052701	0.666669
C61	C	0.318248	-1.773852	0.000021
C62	C	0.651581	-1.440519	0.333354
C63	C	0.984914	-1.107186	0.666687
C64	C	0.423617	-1.790630	0.000029
C65	C	0.756950	-1.457297	0.333362
C66	C	1.090284	-1.123963	0.666696
N67	N	0.160256	-1.739599	-0.254216
N68	N	0.493589	-1.406266	0.079117
N69	N	0.826922	-1.072933	0.412450
C70	C	0.173513	-1.720517	-0.473330
C71	C	0.506846	-1.387183	-0.139997
C72	C	0.840180	-1.053850	0.193336
C73	C	0.116175	-1.803094	-0.526662
C74	C	0.449508	-1.469760	-0.193329
C75	C	0.782842	-1.136427	0.140005
C76	C	0.123551	-1.792476	-0.648585
C77	C	0.456885	-1.459143	-0.315251
C78	C	0.790218	-1.125809	0.018082
C79	C	0.166138	-1.731133	-0.351397
C80	C	0.499471	-1.397800	-0.018063
C81	C	0.832804	-1.064466	0.315270
N82	N	0.129429	-1.784016	0.254231
N83	N	0.462762	-1.450682	0.587564
N84	N	0.796096	-1.117349	0.920897
H85	H	-0.351312	-1.935987	0.000085
H86	H	-0.017978	-1.602654	0.333418
H87	H	0.315355	-1.269320	0.666752
H88	H	-0.359005	-1.587627	0.000014
H89	H	-0.025672	-1.254294	0.333347
H90	H	0.307662	-0.920960	0.666680
H91	H	0.228139	-1.641852	-0.519233
H92	H	0.561472	-1.308519	-0.185900
H93	H	0.894805	-0.975186	0.147433
H94	H	0.061547	-1.881765	-0.480754
H95	H	0.394880	-1.548432	-0.147420
H96	H	0.728214	-1.215098	0.185913
