data_functionalizedCrystal
_audit_creation_method	'MofGen! by Chris Wilmer'
_symmetry_space_group_name_H-M	'P1'
_symmetry_Int_Tables_number	1
_symmetry_cell_setting	triclinic
loop_
_symmetry_equiv_pos_as_xyz
  x,y,z
_cell_length_a	19.077105
_cell_length_b	21.295417
_cell_length_c	21.295412
_cell_angle_alpha	90.030668
_cell_angle_beta	92.320544
_cell_angle_gamma	87.726672
loop_
_atom_site_label
_atom_site_type_symbol
_atom_site_fract_x
_atom_site_fract_y
_atom_site_fract_z
Zn1	Zn	1.075981	-0.289351	0.394524
Zn2	Zn	1.575981	0.210649	0.894524
Zn3	Zn	1.075874	-0.394616	0.289246
Zn4	Zn	1.575874	0.105384	0.789246
Zn5	Zn	0.958275	-0.285132	0.285045
Zn6	Zn	1.458275	0.214868	0.785045
Zn7	Zn	0.958239	-0.390349	0.390256
Zn8	Zn	1.458239	0.109651	0.890256
O9	O	1.017092	-0.339862	0.339768
O10	O	1.517092	0.160138	0.839768
O11	O	1.174458	-0.306866	0.384103
O12	O	1.674458	0.193134	0.884103
O13	O	1.060245	-0.380112	0.200598
O14	O	1.560245	0.119888	0.700598
O15	O	0.973949	-0.197604	0.299596
O16	O	1.473949	0.302396	0.799596
O17	O	1.174379	-0.384204	0.306755
O18	O	1.674379	0.115796	0.806755
O19	O	1.060427	-0.200704	0.380030
O20	O	1.560427	0.299296	0.880030
O21	O	0.973846	-0.299675	0.197512
O22	O	1.473846	0.200325	0.697512
O23	O	0.859780	-0.295537	0.295457
O24	O	1.359780	0.204463	0.795457
O25	O	0.973887	-0.376931	0.478913
O26	O	1.473887	0.123069	0.978913
O27	O	0.859753	-0.372840	0.372755
O28	O	1.359753	0.127160	0.872755
O29	O	1.060392	-0.302729	0.482048
O30	O	1.560392	0.197271	0.982048
O31	O	1.060209	-0.482137	0.302616
O32	O	1.560209	0.017863	0.802616
O33	O	0.973784	-0.479002	0.376828
O34	O	1.473784	0.020998	0.876828
C35	C	0.834229	-0.333268	0.333188
C36	C	1.334229	0.166732	0.833188
C37	C	0.755999	-0.330463	0.330388
C38	C	1.255999	0.169537	0.830388
C39	C	1.017000	-0.503410	0.339729
C40	C	1.517000	-0.003410	0.839729
C41	C	1.017025	-0.573379	0.339736
C42	C	1.517025	-0.073379	0.839736
C43	C	0.719251	-0.369453	0.369254
C44	C	1.219251	0.130547	0.869254
C45	C	0.645746	-0.366808	0.366626
C46	C	1.145746	0.133192	0.866626
C47	C	0.608990	-0.325176	0.325128
C48	C	1.108990	0.174824	0.825128
C49	C	0.645743	-0.286182	0.286261
C50	C	1.145743	0.213818	0.786261
C51	C	0.719247	-0.288824	0.288892
C52	C	1.219247	0.211176	0.788892
C53	C	0.389157	-0.312950	0.312952
C54	C	0.889157	0.187050	0.812952
C55	C	0.315648	-0.310313	0.310323
C56	C	0.815648	0.189687	0.810323
C57	C	0.315655	-0.390938	0.390689
C58	C	0.815655	0.109062	0.890689
C59	C	0.389161	-0.393579	0.393314
C60	C	0.889161	0.106421	0.893314
C61	C	0.425907	-0.354582	0.354449
C62	C	0.925907	0.145418	0.854449
N63	N	0.533856	-0.322474	0.322440
N64	N	1.033856	0.177526	0.822440
N65	N	0.501040	-0.357282	0.357141
N66	N	1.001040	0.142718	0.857141
C67	C	1.062067	-0.607859	0.301137
C68	C	1.562067	-0.107859	0.801137
C69	C	1.062100	-0.673602	0.301152
C70	C	1.562100	-0.173602	0.801152
C71	C	1.017078	-0.704864	0.339760
C72	C	1.517078	-0.204864	0.839760
C73	C	0.972033	-0.670376	0.378367
C74	C	1.472033	-0.170376	0.878367
C75	C	0.972007	-0.604634	0.378355
C76	C	1.472007	-0.104634	0.878355
N77	N	0.955509	-0.805913	0.342344
N78	N	1.455509	-0.305913	0.842344
N79	N	0.955537	-0.868366	0.342351
N80	N	1.455537	-0.368366	0.842351
C81	C	1.017157	-0.902941	0.339799
C82	C	1.517157	-0.402941	0.839799
N83	N	1.078751	-0.872705	0.337227
N84	N	1.578751	-0.372705	0.837227
N85	N	1.078723	-0.810246	0.337216
N86	N	1.578723	-0.310246	0.837216
C87	C	1.017103	-0.776150	0.339778
C88	C	1.517103	-0.276150	0.839778
C89	C	1.062239	-1.008708	0.301214
C90	C	1.562239	-0.508708	0.801214
C91	C	1.062273	-1.074453	0.301234
C92	C	1.562273	-0.574453	0.801234
C93	C	0.972200	-1.071225	0.378445
C94	C	1.472200	-0.571225	0.878445
C95	C	0.972172	-1.005481	0.378429
C96	C	1.472172	-0.505481	0.878429
C97	C	1.017191	-0.974227	0.339810
C98	C	1.517191	-0.474227	0.839810
C99	C	1.200670	-0.346482	0.346374
C100	C	1.700670	0.153518	0.846374
C101	C	1.278900	-0.349303	0.349189
C102	C	1.778900	0.150697	0.849189
C103	C	1.017147	-0.339825	0.503960
C104	C	1.517147	0.160175	1.003960
C105	C	1.017171	-0.339809	0.573929
C106	C	1.517171	0.160191	1.073929
C107	C	1.017204	-0.175676	0.339820
C108	C	1.517204	0.324324	0.839820
C109	C	1.017252	-0.105709	0.339843
C110	C	1.517252	0.394291	0.839843
C111	C	1.017078	-0.339855	0.176216
C112	C	1.517078	0.160145	0.676216
C113	C	1.017191	-0.339698	0.106252
C114	C	1.517191	0.160302	0.606252
C115	C	0.972195	-0.297921	0.605179
C116	C	1.472195	0.202079	1.105179
C117	C	0.972192	-0.297909	0.670922
C118	C	1.472192	0.202091	1.170922
C119	C	1.017178	-0.339779	0.705412
C120	C	1.517178	0.160221	1.205412
C121	C	1.062158	-0.381675	0.674154
C122	C	1.562158	0.118325	1.174154
C123	C	1.062154	-0.381690	0.608412
C124	C	1.562154	0.118310	1.108412
N125	N	1.078790	-0.346804	0.810861
N126	N	1.578790	0.153196	1.310861
N127	N	1.078791	-0.346786	0.873313
N128	N	1.578791	0.153214	1.373313
C129	C	1.017191	-0.339738	0.903487
C130	C	1.517191	0.160262	1.403487
N131	N	0.955589	-0.332695	0.868851
N132	N	1.455589	0.167305	1.368851
N133	N	0.955588	-0.332710	0.806394
N134	N	1.455588	0.167290	1.306394
C135	C	1.017187	-0.339768	0.776697
C136	C	1.517187	0.160232	1.276697
C137	C	0.972209	-0.297835	1.006023
C138	C	1.472209	0.202165	1.506023
C139	C	0.972205	-0.297827	1.071766
C140	C	1.472205	0.202173	1.571766
C141	C	1.062177	-0.381590	1.074997
C142	C	1.562177	0.118410	1.574997
C143	C	1.062174	-0.381600	1.009255
C144	C	1.562174	0.118400	1.509255
C145	C	1.017191	-0.339720	0.974771
C146	C	1.517191	0.160280	1.474771
H147	H	0.749172	-0.403356	0.403044
H148	H	1.249172	0.096644	0.903044
Cl149	Cl	1.118908	-1.117799	0.252709
Cl150	Cl	1.618908	-0.617799	0.752709
Cl151	Cl	0.435343	-0.263924	0.264094
Cl152	Cl	0.935343	0.236076	0.764094
Cl153	Cl	0.599551	-0.415826	0.415489
Cl154	Cl	1.099551	0.084174	0.915489
H155	H	1.098786	-0.415766	0.702240
H156	H	1.598786	0.084234	1.202240
Cl157	Cl	0.765445	-0.239805	0.240031
Cl158	Cl	1.265445	0.260195	0.740031
Cl159	Cl	1.118701	-0.434352	0.569124
Cl160	Cl	1.618701	0.065648	1.069124
H161	H	0.419082	-0.427481	0.427105
H162	H	0.919082	0.072519	0.927105
Cl163	Cl	0.599536	-0.233841	0.234096
Cl164	Cl	1.099536	0.266159	0.734096
H165	H	0.935546	-1.096677	0.409883
H166	H	1.435546	-0.596677	0.909883
H167	H	0.935581	-0.263733	0.977945
H168	H	1.435581	0.236267	1.477945
Cl169	Cl	1.118672	-0.568571	0.252597
Cl170	Cl	1.618672	-0.068571	0.752597
Cl171	Cl	0.915638	-0.245180	1.111052
Cl172	Cl	1.415638	0.254820	1.611052
H173	H	0.285728	-0.422686	0.422332
H174	H	0.785728	0.077314	0.922332
H175	H	0.935492	-0.977406	0.409858
H176	H	1.435492	-0.477406	0.909858
H177	H	1.098800	-0.415709	0.983811
H178	H	1.598800	0.084291	1.483811
H179	H	1.098807	-0.415680	1.103079
H180	H	1.598807	0.084320	1.603079
H181	H	0.285723	-0.276404	0.276534
H182	H	0.785723	0.223596	0.776534
H183	H	1.098781	-0.701681	0.269720
H184	H	1.598781	-0.201681	0.769720
H185	H	0.935378	-0.695833	0.409803
H186	H	1.435378	-0.195833	0.909803
H187	H	0.935327	-0.576560	0.409788
H188	H	1.435327	-0.076560	0.909788
Cl189	Cl	0.915641	-0.245274	0.561832
Cl190	Cl	1.415641	0.254726	1.061832
Cl191	Cl	1.118832	-0.969413	0.252666
Cl192	Cl	1.618832	-0.469413	0.752666
H193	H	0.935569	-0.263796	0.696371
H194	H	1.435569	0.236204	1.196371
