data_functionalizedCrystal
_audit_creation_method	'MofGen! by Chris Wilmer'
_symmetry_space_group_name_H-M	'P1'
_symmetry_Int_Tables_number	1
_symmetry_cell_setting	triclinic
loop_
_symmetry_equiv_pos_as_xyz
  x,y,z
_cell_length_a	14.519731
_cell_length_b	19.188900
_cell_length_c	12.996460
_cell_angle_alpha	89.990587
_cell_angle_beta	90.007160
_cell_angle_gamma	96.589329
loop_
_atom_site_label
_atom_site_type_symbol
_atom_site_fract_x
_atom_site_fract_y
_atom_site_fract_z
O1	O	0.115004	-0.926571	0.085769
O2	O	0.130533	-0.723313	0.085727
O3	O	-0.011503	-0.830323	0.085740
O4	O	0.257040	-0.819560	0.085756
O5	O	-0.011512	-0.830321	-0.085394
O6	O	0.130523	-0.723311	-0.085406
O7	O	0.114995	-0.926569	-0.085365
Cu8	Cu	0.122758	-0.824940	-0.101012
Cu9	Cu	0.122769	-0.824942	0.101374
O10	O	0.257031	-0.819558	-0.085377
C11	C	0.130030	-0.697298	0.000155
C12	C	0.128534	-0.619787	0.000139
C13	C	-0.045864	-0.829818	0.000173
C14	C	-0.148234	-0.828307	0.000172
C15	C	0.127821	-0.583394	0.093425
C16	C	0.126405	-0.510565	0.093436
C17	C	0.125684	-0.474134	0.000154
C18	C	0.126403	-0.510536	-0.093145
C19	C	0.127828	-0.583363	-0.093152
N20	N	0.070963	-0.364915	-0.069272
N21	N	0.069607	-0.295733	-0.069259
C22	C	0.121394	-0.254711	0.000172
N23	N	0.174575	-0.285487	0.069604
N24	N	0.175926	-0.354676	0.069593
C25	C	0.124140	-0.395166	0.000152
C26	C	0.119147	-0.139348	0.093476
C27	C	0.117737	-0.066518	0.093482
C28	C	0.117725	-0.066491	-0.093101
C29	C	0.119145	-0.139319	-0.093104
C30	C	0.119851	-0.175744	0.000187
C31	C	-0.231371	-0.827079	0.000174
C32	C	-0.335670	-0.825544	0.000181
C33	C	-0.418801	-0.824327	0.000188
C34	C	-0.523107	-0.822792	0.000193
C35	C	0.291391	-0.820064	0.000192
C36	C	0.393762	-0.821575	0.000200
C37	C	0.115504	0.047418	0.000201
C38	C	0.117018	-0.030092	0.000200
N39	N	0.122770	-0.824944	0.243721
N40	N	0.122750	-0.824943	-0.243359
C41	C	0.122761	-0.824940	0.663535
C42	C	0.122767	-0.824939	0.546730
C43	C	0.122765	-0.824941	0.453632
C44	C	0.122772	-0.824941	0.336819
H45	H	0.128396	-0.613047	0.169390
H46	H	0.125826	-0.480927	0.169403
H47	H	0.125819	-0.480869	-0.169095
Cl48	Cl	0.116848	-0.020764	0.210768
H49	H	0.128410	-0.612994	-0.169120
H50	H	0.119731	-0.169006	0.169439
Cl51	Cl	0.116829	-0.020698	-0.210371
Cl52	Cl	0.120036	-0.185074	-0.210386
