data_functionalizedCrystal
_audit_creation_method	'MofGen! by Chris Wilmer'
_symmetry_space_group_name_H-M	'P1'
_symmetry_Int_Tables_number	1
_symmetry_cell_setting	triclinic
loop_
_symmetry_equiv_pos_as_xyz
  x,y,z
_cell_length_a	16.959455
_cell_length_b	18.050589
_cell_length_c	18.050582
_cell_angle_alpha	90.018912
_cell_angle_beta	90.014681
_cell_angle_gamma	90.025168
loop_
_atom_site_label
_atom_site_type_symbol
_atom_site_fract_x
_atom_site_fract_y
_atom_site_fract_z
Zn1	Zn	1.208342	-0.295762	0.419913
Zn2	Zn	1.208245	-0.419947	0.295732
Zn3	Zn	1.076169	-0.295768	0.295739
Zn4	Zn	1.076116	-0.419908	0.419883
O5	O	1.142218	-0.357846	0.357817
O6	O	1.318940	-0.312249	0.403449
O7	O	1.190706	-0.403493	0.191808
O8	O	1.093765	-0.191843	0.312226
O9	O	1.318868	-0.403487	0.312214
O10	O	1.190872	-0.191838	0.403456
O11	O	1.093671	-0.312260	0.191814
O12	O	0.965551	-0.312222	0.312198
O13	O	1.093674	-0.403421	0.523812
O14	O	0.965512	-0.403427	0.403406
O15	O	1.190820	-0.312211	0.523833
O16	O	1.190655	-0.523866	0.312186
O17	O	1.093580	-0.523838	0.403399
C18	C	0.936852	-0.357822	0.357800
C19	C	0.848995	-0.357829	0.357810
C20	C	0.477516	-0.310317	0.310424
C21	C	0.477524	-0.405437	0.405252
C22	C	0.560069	-0.405426	0.405247
C23	C	0.601342	-0.357861	0.357830
C24	C	0.560069	-0.310307	0.310416
C25	C	0.601349	-0.452985	0.452655
C26	C	0.683900	-0.452977	0.452651
C27	C	0.725174	-0.405407	0.405237
C28	C	0.683896	-0.357850	0.357822
C29	C	0.725168	-0.310285	0.310404
C30	C	0.683892	-0.262724	0.262993
C31	C	0.601343	-0.262737	0.263002
C32	C	0.807722	-0.405394	0.405228
C33	C	0.807722	-0.310275	0.310397
C34	C	1.142123	-0.550798	0.357804
C35	C	1.142154	-0.633344	0.357824
C36	C	1.089417	-0.832806	0.407408
C37	C	1.070154	-0.882240	0.339641
C38	C	1.142232	-0.784475	0.357834
C39	C	1.161534	-0.882122	0.425608
C40	C	1.142305	-0.930460	0.357849
C41	C	1.122930	-0.832821	0.290031
C42	C	1.214344	-0.832699	0.376043
C43	C	1.195108	-0.882111	0.308230
C44	C	1.142187	-0.700376	0.357826
C45	C	1.142350	-1.014556	0.357849
C46	C	1.348386	-0.357871	0.357834
C47	C	1.436243	-0.357882	0.357842
C48	C	1.142252	-0.357811	0.551522
C49	C	1.142267	-0.357796	0.634068
C50	C	1.142335	-0.164141	0.357845
C51	C	1.142385	-0.081595	0.357857
C52	C	1.142229	-0.357828	0.164865
C53	C	1.142368	-0.357634	0.082319
C54	C	1.089488	-0.407315	0.882882
C55	C	1.070181	-0.339577	0.833489
C56	C	1.142334	-0.357687	0.931189
C57	C	1.161571	-0.425475	0.833500
C58	C	1.142299	-0.357744	0.785204
C59	C	1.122989	-0.289912	0.882883
C60	C	1.214412	-0.375857	0.882898
C61	C	1.195132	-0.308071	0.833527
C62	C	1.142352	-0.357655	1.015287
C63	C	1.142281	-0.357768	0.701107
H64	H	0.841321	-0.271537	0.271787
H65	H	1.275365	-0.391225	0.904617
H66	H	1.239804	-0.903623	0.266264
H67	H	1.044688	-0.811157	0.449273
H68	H	1.275279	-0.810924	0.391464
H69	H	1.106563	-0.811255	0.232705
N70	N	0.993692	-0.320326	0.806270
N71	N	0.935444	-0.359712	0.822086
H72	H	0.881421	-0.346121	0.802865
H73	H	0.717500	-0.491703	0.491257
N74	N	0.435380	-0.454021	0.453694
N75	N	0.472242	-0.496474	0.496024
H76	H	0.442477	-0.530789	0.530240
N77	N	1.102460	-0.218010	0.909987
N78	N	1.099129	-0.206390	0.978185
H79	H	1.084624	-0.155612	0.997330
H80	H	1.177857	-0.482779	0.811808
N81	N	1.181967	-0.909292	0.497504
N82	N	1.139973	-0.893485	0.552164
H83	H	1.154397	-0.912672	0.602942
H84	H	0.717507	-0.224000	0.224382
H85	H	1.009205	-0.904017	0.324253
H86	H	1.239807	-0.266079	0.811994
H87	H	1.044779	-0.449206	0.904553
H88	H	0.567728	-0.224016	0.224401
N89	N	0.849873	-0.453982	0.453648
N90	N	0.813013	-0.496454	0.495975
H91	H	0.842781	-0.530772	0.530175
H92	H	0.567738	-0.491715	0.491254
N93	N	0.435346	-0.261736	0.262006
N94	N	0.361642	-0.261745	0.262020
H95	H	0.331858	-0.227434	0.227825
