data_functionalizedCrystal
_audit_creation_method	'MofGen! by Chris Wilmer'
_symmetry_space_group_name_H-M	'P1'
_symmetry_Int_Tables_number	1
_symmetry_cell_setting	triclinic
loop_
_symmetry_equiv_pos_as_xyz
  x,y,z
_cell_length_a	14.044191
_cell_length_b	13.101018
_cell_length_c	14.044220
_cell_angle_alpha	86.335600
_cell_angle_beta	93.190327
_cell_angle_gamma	93.666878
loop_
_atom_site_label
_atom_site_type_symbol
_atom_site_fract_x
_atom_site_fract_y
_atom_site_fract_z
O1	O	1.281983	0.085170	0.225382
O2	O	1.005311	0.085182	0.217069
O3	O	1.139494	0.085166	0.082890
O4	O	1.147800	0.085186	0.359561
O5	O	1.129855	-0.085263	0.092525
O6	O	0.995672	-0.085247	0.226704
O7	O	1.272344	-0.085260	0.235017
Zn8	Zn	1.132478	-0.112313	0.232390
Zn9	Zn	1.145177	0.112235	0.219695
O10	O	1.138162	-0.085243	0.369196
C11	C	0.964870	-0.000031	0.218250
C12	C	0.858727	-0.000026	0.207402
N13	N	1.123818	-0.265560	0.241054
C14	C	0.613268	-0.000032	0.264503
C15	C	0.664393	-0.000036	0.187587
C16	C	0.772531	-0.000031	0.198615
C17	C	0.505121	-0.000038	0.253476
C18	C	1.165622	-0.525475	0.199233
C19	C	1.112043	-0.474596	0.252843
C20	C	1.118596	-0.358278	0.246282
C21	C	1.159070	-0.641804	0.205793
C22	C	1.312785	-0.000044	0.233836
C23	C	1.418929	-0.000042	0.244683
C24	C	1.131038	-0.000049	0.052086
C25	C	1.120194	-0.000050	-0.054057
N26	N	1.153844	0.265483	0.211025
C27	C	1.100368	-0.000034	-0.248396
C28	C	1.177283	-0.000034	-0.299524
C29	C	1.166252	-0.000026	-0.407661
C30	C	1.111398	-0.000043	-0.140250
C31	C	1.146617	-0.000026	0.400000
C32	C	1.157462	-0.000019	0.506143
H33	H	0.626954	0.000031	0.113451
C34	C	1.277430	-0.000062	-0.248950
H35	H	1.271804	-0.000079	-0.181849
H36	H	1.314507	0.059363	-0.270240
H37	H	1.307754	-0.059509	-0.263544
H38	H	1.026241	-0.000028	-0.285836
H39	H	0.650710	-0.000024	0.338629
H40	H	1.061253	-0.518395	0.303669
H41	H	1.216410	-0.481681	0.148412
