data_functionalizedCrystal
_audit_creation_method	'MofGen! by Chris Wilmer'
_symmetry_space_group_name_H-M	'P1'
_symmetry_Int_Tables_number	1
_symmetry_cell_setting	triclinic
loop_
_symmetry_equiv_pos_as_xyz
  x,y,z
_cell_length_a	10.654545
_cell_length_b	16.992695
_cell_length_c	16.053948
_cell_angle_alpha	92.712453
_cell_angle_beta	87.149157
_cell_angle_gamma	92.424349
loop_
_atom_site_label
_atom_site_type_symbol
_atom_site_fract_x
_atom_site_fract_y
_atom_site_fract_z
O1	O	1.672356	-0.107197	0.069420
O2	O	1.307784	-0.117698	0.069424
O3	O	1.488609	0.001703	0.069416
O4	O	1.491531	-0.226598	0.069429
O5	O	1.498611	-0.004247	-0.069440
O6	O	1.317786	-0.123648	-0.069432
O7	O	1.682358	-0.113147	-0.069435
Zn8	Zn	1.501660	-0.119342	-0.091480
Zn9	Zn	1.488482	-0.111503	0.091469
O10	O	1.501533	-0.232548	-0.069427
C11	C	1.265921	-0.119903	-0.000003
C12	C	1.126278	-0.117598	-0.000002
C13	C	1.066132	-0.119756	-0.075693
C14	C	0.934924	-0.117578	-0.075693
C15	C	0.924019	-0.111086	0.075695
C16	C	1.055225	-0.113258	0.075694
C17	C	0.767186	-0.072625	-0.166632
C18	C	0.707035	-0.074797	-0.242327
C19	C	0.749408	-0.124257	-0.309153
C20	C	0.851930	-0.171565	-0.300287
C21	C	0.912074	-0.169400	-0.224591
C22	C	0.869705	-0.119921	-0.157768
C23	C	1.222965	-0.158218	0.166628
C24	C	1.283111	-0.156059	0.242325
C25	C	1.240739	-0.106603	0.309158
C26	C	1.138211	-0.059306	0.300300
C27	C	1.078065	-0.061466	0.224603
C28	C	1.120447	-0.110921	0.157770
C29	C	1.489850	0.027961	-0.000012
C30	C	1.478631	0.115066	-0.000012
C31	C	1.724222	-0.110942	-0.000006
C32	C	1.863864	-0.113246	-0.000002
C33	C	1.500293	-0.258806	0.000003
C34	C	1.511511	-0.345910	0.000008
N35	N	1.510663	-0.124692	-0.216337
C36	C	1.586882	0.164719	-0.000014
C37	C	1.576332	0.246563	-0.000006
C38	C	1.457531	0.278753	-0.000002
C39	C	1.349271	0.229093	0.000003
C40	C	1.359822	0.147251	0.000001
C41	C	1.413803	0.522588	0.000010
C42	C	1.403260	0.604437	0.000010
C43	C	1.630322	0.621901	0.000003
C44	C	1.640863	0.540056	-0.000004
C45	C	1.532603	0.490404	0.000005
N46	N	1.446744	0.362410	0.000004
N47	N	1.543390	0.406748	0.000005
C48	C	1.432858	-0.078541	-0.260057
C49	C	1.439188	-0.082293	-0.347462
C50	C	1.523330	-0.132191	-0.391145
C51	C	1.601139	-0.178347	-0.347418
C52	C	1.594802	-0.174599	-0.260015
C53	C	1.550960	-0.148554	-0.652545
C54	C	1.557294	-0.152297	-0.739954
C55	C	1.395341	-0.056244	-0.739991
C56	C	1.389017	-0.052497	-0.652587
C57	C	1.466820	-0.098655	-0.608868
N58	N	1.529805	-0.136026	-0.480486
N59	N	1.460338	-0.094825	-0.519528
N60	N	1.479489	-0.106147	0.216326
H61	H	0.732686	-0.032338	-0.112226
Br62	Br	1.242020	0.648122	0.000007
H63	H	1.625815	-0.192933	-0.775518
Br64	Br	1.266877	0.455214	0.000028
Br65	Br	0.909414	-0.238708	-0.390979
Br66	Br	1.656508	-0.211227	-0.593224
Br67	Br	1.715320	-0.246076	-0.406701
H68	H	1.375831	-0.044712	-0.383055
Br69	Br	1.700399	-0.237234	-0.200680
Br70	Br	1.162557	-0.125643	-0.178423
H71	H	0.995541	-0.207920	-0.217371
Br72	Br	1.080690	0.007810	0.391006
Br73	Br	1.188037	0.272779	0.000022
Br74	Br	1.212903	0.079864	0.000010
H75	H	1.683623	0.138517	-0.000022
Br76	Br	1.777238	0.689288	-0.000009
Br77	Br	1.802097	0.496377	0.000017
Br78	Br	1.318674	-0.010809	-0.200781
H79	H	0.700423	-0.126025	-0.370785
H80	H	0.623561	-0.036274	-0.249540
H81	H	1.664482	0.286988	-0.000009
H82	H	1.320502	-0.011862	-0.617026
Br83	Br	0.827586	-0.105173	0.178421
H84	H	0.994579	-0.022953	0.217396
H85	H	1.289712	-0.104856	0.370797
Br86	Br	1.422257	-0.220249	0.254347
H87	H	1.257481	-0.198489	0.112208
Br88	Br	1.289751	0.006393	-0.799328
