data_functionalizedCrystal
_audit_creation_method	'MofGen! by Chris Wilmer'
_symmetry_space_group_name_H-M	'P1'
_symmetry_Int_Tables_number	1
_symmetry_cell_setting	triclinic
loop_
_symmetry_equiv_pos_as_xyz
  x,y,z
_cell_length_a	27.732048
_cell_length_b	10.723023
_cell_length_c	9.798715
_cell_angle_alpha	89.996380
_cell_angle_beta	90.008315
_cell_angle_gamma	96.444899
loop_
_atom_site_label
_atom_site_type_symbol
_atom_site_fract_x
_atom_site_fract_y
_atom_site_fract_z
O1	O	0.067787	-1.654382	0.113513
O2	O	0.074277	-1.290961	0.113516
O3	O	0.000705	-1.483959	0.113489
O4	O	0.141359	-1.461384	0.113541
O5	O	0.000705	-1.483945	-0.113493
O6	O	0.074276	-1.290948	-0.113466
O7	O	0.067787	-1.654369	-0.113469
Zn8	Zn	0.071031	-1.472656	-0.149506
Zn9	Zn	0.071032	-1.472674	0.149553
O10	O	0.141358	-1.461371	-0.113441
C11	C	0.073804	-1.244474	0.000025
C12	C	0.072392	-1.105978	0.000025
C13	C	0.071761	-1.044226	-0.117558
C14	C	0.070301	-0.901083	-0.117561
C15	C	-0.017305	-1.483478	-0.000006
C16	C	-0.070968	-1.482051	-0.000017
C17	C	-0.409131	-1.587117	0.000052
C18	C	-0.610824	-1.581823	0.000071
O19	O	-0.641483	-1.677899	0.000130
N20	N	-0.630658	-1.467384	0.000071
C21	C	-0.600066	-1.354259	0.000075
O22	O	-0.621564	-1.256800	0.000089
C23	C	-0.398374	-1.359555	0.000065
C24	C	-0.378543	-1.474002	0.000052
C25	C	-0.389299	-1.701555	0.000040
C26	C	-0.338879	-1.702877	0.000028
C27	C	-0.308291	-1.589762	0.000028
C28	C	-0.328123	-1.475324	0.000040
C29	C	-0.367783	-1.246432	0.000079
C30	C	-0.317357	-1.247766	0.000080
C31	C	-0.297526	-1.362213	0.000067
C32	C	-0.247114	-1.363531	0.000027
N33	N	-0.227280	-1.477971	0.000027
C34	C	-0.257868	-1.591086	0.000028
C35	C	-0.705957	-1.351487	0.000077
C36	C	-0.756380	-1.350163	0.000077
C37	C	-0.767134	-1.577727	0.000076
C38	C	-0.716711	-1.579050	0.000066
C39	C	-0.686123	-1.465927	0.000077
C40	C	-0.151982	-1.593854	0.000001
C41	C	-0.101557	-1.595167	-0.000017
C42	C	-0.090807	-1.367603	-0.000009
C43	C	-0.141227	-1.366290	0.000002
C44	C	-0.171814	-1.479426	0.000011
O45	O	-0.216426	-1.267507	-0.000016
O46	O	-0.236361	-1.688531	0.000044
C47	C	-0.459551	-1.585795	0.000064
C48	C	-0.479383	-1.471357	0.000076
C49	C	-0.448795	-1.358242	0.000076
C50	C	-0.529806	-1.470033	0.000076
C51	C	-0.560394	-1.583149	0.000076
C52	C	-0.540560	-1.697588	0.000077
C53	C	-0.490140	-1.698910	0.000064
C54	C	-0.468629	-1.243802	0.000076
C55	C	-0.519050	-1.242489	0.000086
C56	C	-0.549638	-1.355605	0.000086
C57	C	0.159368	-1.461852	0.000057
C58	C	0.213032	-1.463279	0.000077
N59	N	0.071031	-1.472653	-0.353605
C60	C	0.068259	-0.700856	0.000022
C61	C	0.069672	-0.839351	0.000022
C62	C	0.040073	-1.553888	-0.578549
C63	C	0.040074	-1.553871	-0.421386
N64	N	0.071029	-1.472686	0.353653
H65	H	0.072300	-1.097330	-0.218223
H66	H	0.013572	-1.623426	-0.636853
H67	H	0.070217	-0.892448	0.100695
H68	H	0.013569	-1.623387	-0.363082
H69	H	0.071849	-1.052875	0.100691
Br70	Br	0.115209	-1.356797	-0.549179
H71	H	-0.085413	-1.688367	-0.000032
H72	H	0.069762	-0.847976	-0.218228
Br73	Br	-0.193485	-1.747397	0.000015
H74	H	0.097533	-1.403125	-0.411900
Br75	Br	-0.311974	-1.858207	0.000048
Br76	Br	-0.689802	-1.734376	0.000045
Br77	Br	-0.430804	-1.855091	0.000041
H78	H	-0.792048	-1.669830	0.000075
Br79	Br	-0.783287	-1.194836	0.000063
H80	H	-0.681056	-1.259363	0.000085
Br81	Br	-0.394683	-1.091101	0.000103
H82	H	-0.157375	-1.273098	-0.000025
Br83	Br	-0.275848	-1.094232	0.000101
Br84	Br	-0.582083	-1.851100	0.000066
Br85	Br	-0.049285	-1.214097	-0.000010
H86	H	-0.473998	-1.792105	0.000054
H87	H	-0.535191	-1.149286	0.000085
H88	H	-0.443728	-1.151688	0.000078
