data_functionalizedCrystal
_audit_creation_method	'MofGen! by Chris Wilmer'
_symmetry_space_group_name_H-M	'P1'
_symmetry_Int_Tables_number	1
_symmetry_cell_setting	triclinic
loop_
_symmetry_equiv_pos_as_xyz
  x,y,z
_cell_length_a	13.032868
_cell_length_b	13.033304
_cell_length_c	13.032268
_cell_angle_alpha	90.922231
_cell_angle_beta	76.714099
_cell_angle_gamma	105.190463
loop_
_atom_site_label
_atom_site_type_symbol
_atom_site_fract_x
_atom_site_fract_y
_atom_site_fract_z
Zn1	Zn	0.335816	-1.451089	-0.818111
Zn2	Zn	0.835816	-0.951089	-0.318111
Zn3	Zn	0.490915	-1.450955	-0.663037
Zn4	Zn	0.990915	-0.950955	-0.163037
Zn5	Zn	0.330113	-1.301754	-0.623661
Zn6	Zn	0.830113	-0.801754	-0.123661
Zn7	Zn	0.535901	-1.250861	-0.817972
Zn8	Zn	1.035901	-0.750861	-0.317972
O9	O	0.423186	-1.363665	-0.730695
O10	O	0.923186	-0.863665	-0.230695
O11	O	0.339950	-1.597308	-0.814077
O12	O	0.839950	-1.097308	-0.314077
O13	O	0.448370	-1.452406	-0.511594
O14	O	0.948370	-0.952406	-0.011594
O15	O	0.179837	-1.342919	-0.633035
O16	O	0.679837	-0.842919	-0.133035
O17	O	0.453901	-1.597210	-0.700144
O18	O	0.953901	-1.097210	-0.200144
O19	O	0.184027	-1.452635	-0.775896
O20	O	0.684027	-0.952635	-0.275896
O21	O	0.330230	-1.342789	-0.482665
O22	O	0.830230	-0.842789	0.017335
O23	O	0.373851	-1.148766	-0.632900
O24	O	0.873851	-0.648766	-0.132900
O25	O	0.530573	-1.256179	-0.964210
O26	O	1.030573	-0.756179	-0.464210
O27	O	0.525043	-1.111375	-0.775660
O28	O	1.025043	-0.611375	-0.275660
O29	O	0.383572	-1.403285	-0.964312
O30	O	0.883572	-0.903285	-0.464312
O31	O	0.647915	-1.403056	-0.700010
O32	O	1.147915	-0.903056	-0.200010
O33	O	0.680966	-1.256048	-0.813841
O34	O	1.180966	-0.756048	-0.313841
C35	C	0.453711	-1.092153	-0.699993
C36	C	0.953711	-0.592153	-0.199993
C37	C	0.466799	-0.975991	-0.686886
C38	C	0.966799	-0.475991	-0.186886
C39	C	0.416370	-0.924223	-0.737523
C40	C	0.916370	-0.424223	-0.237523
C41	C	0.429896	-0.804164	-0.723978
C42	C	0.929896	-0.304164	-0.223978
C43	C	0.703601	-1.324040	-0.761209
C44	C	1.203601	-0.824040	-0.261209
C45	C	0.823559	-1.307179	-0.774309
C46	C	1.323559	-0.807179	-0.274309
C47	C	0.860652	-1.372448	-0.723881
C48	C	1.360652	-0.872448	-0.223881
C49	C	0.984634	-1.355023	-0.737419
C50	C	1.484634	-0.855023	-0.237419
C51	C	1.141679	-1.403436	-0.700073
C52	C	1.641679	-0.903436	-0.200073
C53	C	1.021722	-1.420301	-0.686985
C54	C	1.521722	-0.920301	-0.186985
C55	C	0.462727	-1.324070	-1.003234
C56	C	0.962727	-0.824070	-0.503234
C57	C	0.479577	-1.307197	-1.119374
C58	C	0.979577	-0.807197	-0.619374
C59	C	0.392537	-0.636239	-0.761511
C60	C	0.892537	-0.136239	-0.261511
C61	C	0.379459	-0.752398	-0.774623
C62	C	0.879459	-0.252398	-0.274623
C63	C	0.414355	-1.372460	-1.171203
C64	C	0.914355	-0.872460	-0.671203
C65	C	0.431769	-1.355023	-1.291239
C66	C	0.931769	-0.855023	-0.791239
C67	C	0.383715	-1.403177	-0.459215
C68	C	0.883715	-0.903177	0.040785
C69	C	0.366539	-1.420295	-0.343066
C70	C	0.866539	-0.920295	0.156934
H71	H	0.363177	-0.968786	-0.790900
H72	H	0.863177	-0.468786	-0.290900
N73	N	0.308995	-0.811400	-0.845338
N74	N	0.808995	-0.311400	-0.345338
H75	H	0.247696	-0.869908	-0.802576
H76	H	0.747696	-0.369908	-0.302576
H77	H	0.354958	-0.843403	-0.903537
H78	H	0.854958	-0.343403	-0.403537
N79	N	0.903056	-1.216067	-0.844776
N80	N	1.403056	-0.716067	-0.344776
H81	H	0.952015	-1.244937	-0.903096
H82	H	1.452015	-0.744937	-0.403096
H83	H	0.949078	-1.167346	-0.801800
H84	H	1.449078	-0.667346	-0.301800
N85	N	0.500345	-0.745157	-0.653253
N86	N	1.000345	-0.245157	-0.153253
H87	H	0.500019	-0.667756	-0.653598
H88	H	1.000019	-0.167756	-0.153598
H89	H	0.577667	-0.750949	-0.679914
H90	H	1.077667	-0.250949	-0.179914
N91	N	0.537245	-0.916980	-0.616164
N92	N	1.037245	-0.416980	-0.116164
H93	H	0.536918	-0.839579	-0.616509
H94	H	1.036918	-0.339579	-0.116509
H95	H	0.614566	-0.922772	-0.642825
H96	H	1.114566	-0.422772	-0.142825
H97	H	0.548300	-1.238408	-1.163866
H98	H	1.048300	-0.738408	-0.663866
H99	H	0.800625	-1.441232	-0.670690
H100	H	1.300625	-0.941232	-0.170690
H101	H	0.961697	-1.489089	-0.633791
H102	H	1.461697	-0.989089	-0.133791
H103	H	1.044661	-1.286242	-0.790623
H104	H	1.544661	-0.786242	-0.290623
N105	N	0.522823	-1.263909	-1.350164
N106	N	1.022823	-0.763909	-0.850164
H107	H	0.563957	-1.222752	-1.299085
H108	H	1.063957	-0.722752	-0.799085
H109	H	0.490850	-1.215227	-1.385200
H110	H	0.990850	-0.715227	-0.885200
H111	H	0.345622	-1.441240	-1.126708
H112	H	0.845622	-0.941240	-0.626708
H113	H	0.297798	-1.489079	-1.298576
H114	H	0.797798	-0.989079	-0.798576
