data_functionalizedCrystal
_audit_creation_method	'MofGen! by Chris Wilmer'
_symmetry_space_group_name_H-M	'P1'
_symmetry_Int_Tables_number	1
_symmetry_cell_setting	triclinic
loop_
_symmetry_equiv_pos_as_xyz
  x,y,z
_cell_length_a	10.723024
_cell_length_b	14.044220
_cell_length_c	9.798715
_cell_angle_alpha	89.995876
_cell_angle_beta	89.996609
_cell_angle_gamma	88.828373
loop_
_atom_site_label
_atom_site_type_symbol
_atom_site_fract_x
_atom_site_fract_y
_atom_site_fract_z
O1	O	1.670498	0.133040	-0.113486
O2	O	2.170498	0.633040	0.386514
O3	O	1.308619	0.145774	-0.113491
O4	O	1.808619	0.645774	0.386509
O5	O	1.484127	0.001387	-0.113476
O6	O	1.984127	0.501387	0.386524
O7	O	1.494990	0.277427	-0.113502
O8	O	1.994990	0.777427	0.386498
O9	O	1.484112	0.001387	0.113507
O10	O	1.984112	0.501387	0.613507
O11	O	1.308605	0.145774	0.113491
O12	O	1.808605	0.645774	0.613491
O13	O	1.670483	0.133039	0.113496
O14	O	2.170483	0.633039	0.613496
Zn15	Zn	1.489542	0.139407	0.149532
Zn16	Zn	1.989542	0.639407	0.649532
Zn17	Zn	1.489561	0.139407	-0.149527
Zn18	Zn	1.989561	0.639407	0.350473
O19	O	1.494976	0.277427	0.113480
O20	O	1.994976	0.777427	0.613480
C21	C	1.262020	0.144847	-0.000001
C22	C	1.762020	0.644847	0.499999
C23	C	1.123188	0.142075	-0.000002
C24	C	1.623188	0.642075	0.499998
C25	C	1.056288	0.222866	-0.000011
C26	C	1.556288	0.722866	0.499989
C27	C	0.912798	0.220002	-0.000013
C28	C	1.412798	0.720002	0.499987
C29	C	1.479364	-0.033958	0.000016
C30	C	1.979364	0.466042	0.500016
C31	C	1.465180	-0.139276	0.000018
C32	C	1.965180	0.360724	0.500018
C33	C	1.439248	-0.332106	-0.000002
C34	C	1.939248	0.167894	0.499998
C35	C	1.539849	-0.389085	-0.000005
C36	C	2.039849	0.110915	0.499995
C37	C	1.525420	-0.496383	-0.000016
C38	C	2.025420	0.003617	0.499984
C39	C	1.453675	-0.224799	0.000009
C40	C	1.953675	0.275201	0.500009
C41	C	1.717083	0.133966	0.000002
C42	C	2.217083	0.633966	0.500002
C43	C	1.855914	0.136739	-0.000005
C44	C	2.355914	0.636739	0.499995
C45	C	1.499738	0.312772	-0.000015
C46	C	1.999738	0.812772	0.499985
C47	C	1.513923	0.418090	-0.000025
C48	C	2.013923	0.918090	0.499975
N49	N	1.489538	0.139406	0.353631
N50	N	1.989538	0.639406	0.853631
N51	N	1.489573	0.139401	-0.353627
N52	N	1.989573	0.639401	0.146373
C53	C	1.563202	0.078514	0.421415
C54	C	2.063202	0.578514	0.921415
C55	C	1.563222	0.078511	0.578578
C56	C	2.063222	0.578511	1.078578
H57	H	0.855286	0.289166	-0.000026
H58	H	1.355286	0.789166	0.499974
H59	H	0.913420	0.067571	-0.000006
H60	H	1.413420	0.567571	0.499994
Br61	Br	1.041608	0.023248	0.000024
Br62	Br	1.541608	0.523248	0.500024
H63	H	1.105243	0.294155	-0.000010
H64	H	1.605243	0.794155	0.499990
H65	H	1.426508	0.191538	0.588091
H66	H	1.926508	0.691538	1.088091
Br67	Br	1.701465	-0.336086	0.000009
Br68	Br	2.201465	0.163914	0.500009
H69	H	1.342291	-0.363906	-0.000007
H70	H	1.842291	0.136094	0.499993
Br71	Br	1.384430	0.226289	0.450821
Br72	Br	1.884430	0.726289	0.950821
Br73	Br	1.667957	-0.008616	0.324226
Br74	Br	2.167957	0.491384	0.824226
Br75	Br	1.668354	-0.008376	0.675725
Br76	Br	2.168354	0.491624	1.175725
