data_functionalizedCrystal
_audit_creation_method	'MofGen! by Chris Wilmer'
_symmetry_space_group_name_H-M	'P1'
_symmetry_Int_Tables_number	1
_symmetry_cell_setting	triclinic
loop_
_symmetry_equiv_pos_as_xyz
  x,y,z
_cell_length_a	16.120297
_cell_length_b	13.033652
_cell_length_c	13.032721
_cell_angle_alpha	76.639675
_cell_angle_beta	99.654124
_cell_angle_gamma	80.349162
loop_
_atom_site_label
_atom_site_type_symbol
_atom_site_fract_x
_atom_site_fract_y
_atom_site_fract_z
Zn1	Zn	-0.339468	-1.545364	-0.241124
Zn2	Zn	-0.218564	-1.531488	-0.409964
Zn3	Zn	-0.218549	-1.376547	-0.254935
Zn4	Zn	-0.380559	-1.342167	-0.444281
O5	O	-0.289285	-1.448892	-0.337576
O6	O	-0.306239	-1.693406	-0.243380
O7	O	-0.100161	-1.519515	-0.380817
O8	O	-0.217387	-1.419137	-0.103202
O9	O	-0.217411	-1.683210	-0.367425
O10	O	-0.306225	-1.543166	-0.093055
O11	O	-0.100151	-1.405681	-0.266918
O12	O	-0.257231	-1.222105	-0.300194
O13	O	-0.493508	-1.360541	-0.425914
O14	O	-0.376258	-1.196846	-0.439306
O15	O	-0.463319	-1.509829	-0.276656
O16	O	-0.257255	-1.486178	-0.564417
O17	O	-0.376272	-1.347085	-0.589630
C18	C	-0.321203	-1.170612	-0.374973
C19	C	-0.334880	-1.051558	-0.390999
C20	C	-0.282157	-1.010957	-0.329223
C21	C	-0.296292	-0.887909	-0.345785
C22	C	-0.509972	-1.432898	-0.353572
C23	C	-0.604015	-1.426083	-0.360389
C24	C	-0.776194	-1.413603	-0.372816
C25	C	-0.803166	-1.484434	-0.301987
C26	C	-0.898972	-1.477490	-0.308902
C27	C	-0.680380	-1.420545	-0.365903
C28	C	-0.069441	-1.464895	-0.321557
C29	C	0.024661	-1.471958	-0.314410
C30	C	-0.321239	-1.411423	-0.615889
C31	C	-0.334926	-1.395490	-0.734941
C32	C	-0.257236	-0.728259	-0.300025
C33	C	-0.243562	-0.847312	-0.284001
C34	C	-0.282173	-1.457261	-0.775504
C35	C	-0.296318	-1.440795	-0.898551
C36	C	-0.257221	-1.486534	-0.058174
C37	C	-0.243557	-1.502575	0.060891
H38	H	-0.351897	-0.831576	-0.410943
C39	C	-0.737165	-1.573405	-0.213061
H40	H	-0.680499	-1.566467	-0.220027
H41	H	-0.745117	-1.566413	-0.144210
H42	H	-0.745152	-1.642230	-0.220105
C43	C	-0.371486	-1.352879	-0.974680
H44	H	-0.402752	-1.316264	-0.933275
H45	H	-0.349430	-1.302786	-1.022296
H46	H	-0.408659	-1.385358	-1.015426
C47	C	-0.168444	-0.923403	-0.195979
H48	H	-0.168800	-0.996124	-0.196386
H49	H	-0.115448	-0.907137	-0.209861
H50	H	-0.174754	-0.913900	-0.127377
H51	H	-0.825052	-1.347755	-0.438642
H52	H	-0.226539	-1.522341	-0.719139
C53	C	-0.409997	-0.975463	-0.479011
H54	H	-0.409647	-0.902744	-0.478591
H55	H	-0.403701	-0.984963	-0.547613
H56	H	-0.462994	-0.991729	-0.465113
C57	C	-0.168376	-1.590472	-0.862979
H58	H	-0.168720	-1.589997	-0.790266
H59	H	-0.174610	-1.659114	-0.872403
H60	H	-0.115409	-1.576509	-0.879292
H61	H	-0.390565	-1.330418	-0.791308
H62	H	-0.226552	-1.067293	-0.264077
