data_functionalizedCrystal
_audit_creation_method	'MofGen! by Chris Wilmer'
_symmetry_space_group_name_H-M	'P1'
_symmetry_Int_Tables_number	1
_symmetry_cell_setting	triclinic
loop_
_symmetry_equiv_pos_as_xyz
  x,y,z
_cell_length_a	14.519709
_cell_length_b	14.853567
_cell_length_c	13.930277
_cell_angle_alpha	90.004245
_cell_angle_beta	89.994503
_cell_angle_gamma	96.342462
loop_
_atom_site_label
_atom_site_type_symbol
_atom_site_fract_x
_atom_site_fract_y
_atom_site_fract_z
O1	O	0.120405	-1.196415	-0.079767
O2	O	0.134748	-0.933961	-0.079783
O3	O	-0.006665	-1.072147	-0.079766
O4	O	0.261817	-1.058230	-0.079784
O5	O	-0.006668	-1.072128	0.079896
O6	O	0.134745	-0.933942	0.079878
O7	O	0.120402	-1.196396	0.079895
Zn8	Zn	0.127573	-1.065166	0.105236
Zn9	Zn	0.127577	-1.065191	-0.105125
O10	O	0.261814	-1.058210	0.079878
C11	C	-0.041026	-1.071488	0.000065
C12	C	-0.143407	-1.069545	0.000065
C13	C	0.134096	-0.900363	0.000045
C14	C	0.132149	-0.800278	0.000039
N15	N	0.127569	-1.065155	0.248803
C16	C	-0.518299	-1.062390	0.000040
C17	C	-0.413992	-1.064377	0.000047
C18	C	-0.330856	-1.065967	0.000054
C19	C	-0.226543	-1.067955	0.000059
C20	C	0.296175	-1.058869	0.000044
C21	C	0.398556	-1.060812	0.000038
C22	C	0.121053	-1.229994	0.000064
C23	C	0.123001	-1.330079	0.000064
C24	C	0.039914	-0.387709	0.000067
C25	C	0.207916	-0.366493	0.000055
C26	C	0.209747	-0.460527	0.000052
C27	C	0.126660	-0.518157	0.000055
C28	C	0.041743	-0.481752	0.000061
C29	C	0.294663	-0.496939	0.000035
C30	C	0.296498	-0.590979	0.000031
C31	C	0.213410	-0.648610	0.000041
C32	C	0.128489	-0.612200	0.000049
C33	C	0.045403	-0.669830	0.000052
C34	C	-0.039520	-0.633422	0.000066
C35	C	-0.041345	-0.539383	0.000071
C36	C	0.215235	-0.742649	0.000036
C37	C	0.047231	-0.763873	0.000046
N38	N	0.127573	-1.065209	-0.248691
C39	C	0.190170	-1.004000	0.701064
C40	C	0.064977	-1.126407	0.701049
C41	C	0.064974	-1.126396	0.600553
C42	C	0.127571	-1.065188	0.550308
C43	C	0.190171	-1.003989	0.600559
C44	C	0.002381	-1.187599	0.550295
C45	C	0.002376	-1.187592	0.449793
C46	C	0.064970	-1.126378	0.399546
C47	C	0.127571	-1.065177	0.449803
C48	C	0.190168	-1.003968	0.399558
C49	C	0.252767	-0.942762	0.449814
C50	C	0.252764	-0.942776	0.550312
C51	C	0.064972	-1.126364	0.299047
C52	C	0.190169	-1.003957	0.299053
H53	H	-0.107168	-0.680356	0.000062
H54	H	-0.048595	-1.237428	0.408882
H55	H	-0.029228	-0.358060	0.000082
N56	N	0.292773	-0.307617	0.000031
N57	N	0.291127	-0.223657	0.000024
H58	H	0.351061	-0.182071	0.000004
N59	N	0.301962	-0.779855	0.000031
N60	N	0.303584	-0.863818	0.000032
H61	H	0.364839	-0.890095	0.000031
H62	H	0.303738	-0.892929	0.408893
H63	H	0.362307	-0.450011	0.000023
N64	N	-0.128075	-0.502178	0.000085
N65	N	-0.129693	-0.418214	0.000085
H66	H	-0.190945	-0.391933	0.000092
H67	H	0.365646	-0.620614	0.000019
H68	H	0.241140	-0.954110	0.258150
N69	N	0.316716	-0.880272	0.601643
N70	N	0.401962	-0.881638	0.590408
H71	H	0.447130	-0.837495	0.626662
N72	N	0.254097	-0.941483	0.752406
N73	N	0.254087	-0.941491	0.842137
H74	H	0.299236	-0.897337	0.878400
N75	N	0.001066	-1.188941	0.752384
N76	N	0.001089	-1.188955	0.842114
H77	H	-0.044045	-1.233127	0.878375
H78	H	-0.048579	-1.237438	0.591208
N79	N	0.000980	-1.188788	0.247676
N80	N	-0.084253	-1.187324	0.258915
H81	H	-0.129471	-1.231379	0.222615
N82	N	-0.037651	-0.822725	0.000061
N83	N	-0.113460	-0.790203	0.000079
H84	H	-0.173410	-0.831765	0.000091
