data_functionalizedCrystal
_audit_creation_method	'MofGen! by Chris Wilmer'
_symmetry_space_group_name_H-M	'P1'
_symmetry_Int_Tables_number	1
_symmetry_cell_setting	triclinic
loop_
_symmetry_equiv_pos_as_xyz
  x,y,z
_cell_length_a	14.908979
_cell_length_b	25.639239
_cell_length_c	25.639233
_cell_angle_alpha	89.981253
_cell_angle_beta	93.280764
_cell_angle_gamma	93.340522
loop_
_atom_site_label
_atom_site_type_symbol
_atom_site_fract_x
_atom_site_fract_y
_atom_site_fract_z
Zn1	Zn	1.379047	-0.162042	-0.249556
Zn2	Zn	1.879047	0.337958	0.250444
Zn3	Zn	1.378915	-0.249465	-0.162125
Zn4	Zn	1.878915	0.250535	0.337875
Zn5	Zn	1.228199	-0.167092	-0.167172
Zn6	Zn	1.728199	0.332908	0.332828
Zn7	Zn	1.228105	-0.254502	-0.254566
Zn8	Zn	1.728105	0.245498	0.245434
O9	O	1.303567	-0.208275	-0.208355
O10	O	1.803567	0.291725	0.291645
O11	O	1.505275	-0.169418	-0.233749
O12	O	2.005275	0.330582	0.266251
O13	O	1.358907	-0.238544	-0.089630
O14	O	1.858907	0.261456	0.410370
O15	O	1.248304	-0.093254	-0.178117
O16	O	1.748304	0.406746	0.321883
O17	O	1.505178	-0.233647	-0.169514
O18	O	2.005178	0.266353	0.330486
O19	O	1.359132	-0.089544	-0.238644
O20	O	1.859132	0.410456	0.261356
O21	O	1.248176	-0.178024	-0.093338
O22	O	1.748176	0.321976	0.406662
O23	O	1.101942	-0.182908	-0.182974
O24	O	1.601942	0.317092	0.317026
O25	O	1.248143	-0.242232	-0.327066
O26	O	1.748143	0.257768	0.172934
O27	O	1.101872	-0.247128	-0.247182
O28	O	1.601872	0.252872	0.252818
O29	O	1.359040	-0.174302	-0.323385
O30	O	1.859040	0.325698	0.176615
O31	O	1.358815	-0.323302	-0.174372
O32	O	1.858815	0.176698	0.325628
O33	O	1.248015	-0.327002	-0.242287
O34	O	1.748015	0.172998	0.257713
C35	C	1.069173	-0.216113	-0.216169
C36	C	1.569173	0.283887	0.283831
C37	C	0.968898	-0.219479	-0.219525
C38	C	1.468898	0.280521	0.280475
C39	C	1.303415	-0.344123	-0.208336
C40	C	1.803415	0.155877	0.291664
C41	C	1.303432	-0.402237	-0.208343
C42	C	1.803432	0.097763	0.291657
C43	C	0.827553	-0.257709	-0.257624
C44	C	1.327553	0.242291	0.242376
C45	C	0.921770	-0.254547	-0.254475
C46	C	1.421770	0.245453	0.245525
C47	C	0.921803	-0.187571	-0.187720
C48	C	1.421803	0.312429	0.312280
C49	C	0.827586	-0.190733	-0.190868
C50	C	1.327586	0.309267	0.309132
C51	C	0.780464	-0.225803	-0.225822
C52	C	1.280464	0.274197	0.274178
C53	C	0.686246	-0.228962	-0.228972
C54	C	1.186246	0.271038	0.271028
C55	C	0.686280	-0.161989	-0.162214
C56	C	1.186280	0.338011	0.337786
C57	C	0.780497	-0.158827	-0.159066
C58	C	1.280497	0.341173	0.340934
C59	C	1.361411	-0.760651	-0.173043
C60	C	1.861411	-0.260651	0.326957
C61	C	1.361445	-0.815254	-0.173049
C62	C	1.861445	-0.315254	0.326951
O63	O	1.410583	-0.841839	-0.143015
O64	O	1.910583	-0.341839	0.356985
N65	N	1.303725	-0.844509	-0.208384
N66	N	1.803725	-0.344509	0.291616
C67	C	1.245972	-0.819158	-0.243719
C68	C	1.745972	-0.319158	0.256281
O69	O	1.196880	-0.849056	-0.273776
O70	O	1.696880	-0.349056	0.226224
C71	C	1.245943	-0.764556	-0.243716
C72	C	1.745943	-0.264556	0.256284
C73	C	1.303660	-0.735304	-0.208375
C74	C	1.803660	-0.235304	0.291625
C75	C	1.419124	-0.731398	-0.137705
C76	C	1.919124	-0.231398	0.362295
C77	C	1.419088	-0.676799	-0.137699
C78	C	1.919088	-0.176799	0.362301
C79	C	1.361338	-0.651452	-0.173030
C80	C	1.861338	-0.151452	0.326970
C81	C	1.303624	-0.680704	-0.208368
C82	C	1.803624	-0.180704	0.291632
C83	C	1.188195	-0.739206	-0.279053
C84	C	1.688195	-0.239206	0.220947
C85	C	1.188171	-0.684600	-0.279047
C86	C	1.688171	-0.184600	0.220953
C87	C	1.245889	-0.655348	-0.243705
C88	C	1.745889	-0.155348	0.256295
C89	C	1.245837	-0.600758	-0.243693
C90	C	1.745837	-0.100758	0.256307
N91	N	1.303558	-0.571503	-0.208358
N92	N	1.803558	-0.071503	0.291642
C93	C	1.361308	-0.596850	-0.173027
C94	C	1.861308	-0.096850	0.326973
C95	C	1.246040	-0.933827	-0.243725
C96	C	1.746040	-0.433827	0.256275
C97	C	1.246065	-0.988428	-0.243727
C98	C	1.746065	-0.488428	0.256273
C99	C	1.361539	-0.984520	-0.173057
C100	C	1.861539	-0.484520	0.326943
C101	C	1.361510	-0.929917	-0.173053
C102	C	1.861510	-0.429917	0.326947
C103	C	1.303761	-0.904571	-0.208390
C104	C	1.803761	-0.404571	0.291610
C105	C	1.361227	-0.482187	-0.173016
C106	C	1.861227	0.017813	0.326984
C107	C	1.361183	-0.427583	-0.173011
C108	C	1.861183	0.072417	0.326989
C109	C	1.245712	-0.431497	-0.243683
C110	C	1.745712	0.068503	0.256317
C111	C	1.245752	-0.486096	-0.243686
C112	C	1.745752	0.013904	0.256314
C113	C	1.303517	-0.511440	-0.208350
C114	C	1.803517	-0.011440	0.291650
O115	O	1.196727	-0.574138	-0.273714
O116	O	1.696727	-0.074138	0.226286
O117	O	1.410400	-0.566945	-0.142980
O118	O	1.910400	-0.066945	0.357020
C119	C	1.538875	-0.200407	-0.200510
C120	C	2.038875	0.299593	0.299490
C121	C	1.639150	-0.197055	-0.197167
C122	C	2.139150	0.302945	0.302833
C123	C	1.303596	-0.208265	-0.344727
C124	C	1.803596	0.291735	0.155273
C125	C	1.303608	-0.208261	-0.402840
C126	C	1.803608	0.291739	0.097160
C127	C	1.303743	-0.071896	-0.208384
C128	C	1.803743	0.428104	0.291616
C129	C	1.303819	-0.013780	-0.208397
C130	C	1.803819	0.486220	0.291603
C131	C	1.361425	-0.172788	-0.761290
C132	C	1.861425	0.327212	-0.261290
C133	C	1.361436	-0.172773	-0.815894
C134	C	1.861436	0.327227	-0.315894
O135	O	1.410522	-0.142677	-0.842507
O136	O	1.910522	0.357323	-0.342507
N137	N	1.303707	-0.208135	-0.845120
N138	N	1.803707	0.291865	-0.345120
C139	C	1.245957	-0.243510	-0.819739
C140	C	1.745957	0.256490	-0.319739
O141	O	1.196855	-0.273587	-0.849611
O142	O	1.696855	0.226413	-0.349611
C143	C	1.245942	-0.243522	-0.765136
C144	C	1.745942	0.256478	-0.265136
C145	C	1.303681	-0.208162	-0.735913
C146	C	1.803681	0.291838	-0.235913
C147	C	1.419159	-0.137430	-0.732068
C148	C	1.919159	0.362570	-0.232068
C149	C	1.419149	-0.137445	-0.677467
C150	C	1.919149	0.362555	-0.177467
C151	C	1.361405	-0.172819	-0.652090
C152	C	1.861405	0.327181	-0.152090
C153	C	1.303671	-0.208177	-0.681313
C154	C	1.803671	0.291823	-0.181313
C155	C	1.188188	-0.278895	-0.739756
C156	C	1.688188	0.221105	-0.239756
C157	C	1.188178	-0.278904	-0.685149
C158	C	1.688178	0.221096	-0.185149
C159	C	1.245917	-0.243543	-0.655926
C160	C	1.745917	0.256457	-0.155926
C161	C	1.245917	-0.243567	-0.601335
C162	C	1.745917	0.256433	-0.101335
N163	N	1.303646	-0.208205	-0.572110
N164	N	1.803646	0.291795	-0.072110
C165	C	1.361390	-0.172831	-0.597487
C166	C	1.861390	0.327169	-0.097487
C167	C	1.245992	-0.243482	-0.934408
C168	C	1.745992	0.256518	-0.434408
C169	C	1.246011	-0.243473	-0.989010
C170	C	1.746011	0.256527	-0.489010
C171	C	1.361489	-0.172735	-0.985162
C172	C	1.861489	0.327265	-0.485162
C173	C	1.361474	-0.172747	-0.930559
C174	C	1.861474	0.327253	-0.430559
C175	C	1.303721	-0.208120	-0.905183
C176	C	1.803721	0.291880	-0.405183
C177	C	1.361365	-0.172867	-0.482823
C178	C	1.861365	0.327133	0.017177
C179	C	1.361352	-0.172887	-0.428218
C180	C	1.861352	0.327113	0.071782
C181	C	1.245871	-0.243623	-0.432071
C182	C	1.745871	0.256377	0.067929
C183	C	1.245886	-0.243605	-0.486671
C184	C	1.745886	0.256395	0.013329
C185	C	1.303636	-0.208223	-0.512046
C186	C	1.803636	0.291777	-0.012046
O187	O	1.196854	-0.273646	-0.574687
O188	O	1.696854	0.226354	-0.074687
O189	O	1.410476	-0.142755	-0.567609
O190	O	1.910476	0.357245	-0.067609
C191	C	1.303589	-0.208246	-0.072512
C192	C	1.803589	0.291754	0.427488
C193	C	1.303752	-0.208097	-0.014392
C194	C	1.803752	0.291903	0.485608
H195	H	0.647881	-0.257515	-0.257436
H196	H	1.147881	0.242485	0.242564
H197	H	1.466164	-0.108650	-0.653679
H198	H	1.966164	0.391350	-0.153679
Br199	Br	1.109796	-0.650205	-0.327009
Br200	Br	1.609796	-0.150205	0.172991
Br201	Br	0.985768	-0.139986	-0.140281
Br202	Br	1.485768	0.360014	0.359719
Br203	Br	1.167344	-0.397087	-0.291632
Br204	Br	1.667344	0.102913	0.208368
Br205	Br	1.167665	-0.291474	-1.028662
Br206	Br	1.667665	0.208526	-0.528662
H207	H	1.466089	-0.652984	-0.108922
H208	H	1.966089	-0.152984	0.391078
Br209	Br	0.763598	-0.305294	-0.305067
Br210	Br	1.263598	0.194706	0.194933
H211	H	1.199007	-0.913193	-0.272500
H212	H	1.699007	-0.413193	0.227500
Br213	Br	1.167533	-0.291598	-0.526332
Br214	Br	1.667533	0.208402	-0.026332
Br215	Br	1.109868	-0.778892	-0.327025
Br216	Br	1.609868	-0.278892	0.172975
Br217	Br	1.439912	-1.018930	-0.125104
Br218	Br	1.939912	-0.518930	0.374896
Br219	Br	1.439721	-0.124897	-0.388561
Br220	Br	1.939721	0.375103	0.111439
H221	H	1.198757	-0.509914	-0.272465
H222	H	1.698757	-0.009914	0.227535
H223	H	1.198860	-0.272425	-0.411399
H224	H	1.698860	0.227575	0.088601
Br225	Br	1.439734	-0.124844	-0.517252
Br226	Br	1.939734	0.375156	-0.017252
Br227	Br	1.439837	-0.124756	-0.890905
Br228	Br	1.939837	0.375244	-0.390905
Br229	Br	1.167717	-1.028122	-0.291685
Br230	Br	1.667717	-0.528122	0.208315
Br231	Br	1.167611	-0.291497	-0.899975
Br232	Br	1.667611	0.208503	-0.399975
H233	H	1.466181	-0.108621	-0.752724
H234	H	1.966181	0.391379	-0.252724
H235	H	0.818876	-0.130276	-0.130606
H236	H	1.318876	0.369724	0.369394
Br237	Br	1.439857	-0.124727	-1.019613
Br238	Br	1.939857	0.375273	-0.519613
H239	H	1.141170	-0.307689	-0.763540
H240	H	1.641170	0.192311	-0.263540
Br241	Br	1.109790	-0.326911	-0.650714
Br242	Br	1.609790	0.173089	-0.150714
H243	H	0.960107	-0.280529	-0.280372
H244	H	1.460107	0.219471	0.219628
H245	H	0.647930	-0.136007	-0.136320
H246	H	1.147930	0.363993	0.363680
Br247	Br	1.439622	-0.516574	-0.125060
Br248	Br	1.939622	-0.016574	0.374940
Br249	Br	1.439517	-0.387887	-0.125044
Br250	Br	1.939517	0.112113	0.374956
H251	H	1.466156	-0.752029	-0.108933
H252	H	1.966156	-0.252029	0.391067
Br253	Br	1.439843	-0.890223	-0.125088
Br254	Br	1.939843	-0.390223	0.374912
