data_functionalizedCrystal
_audit_creation_method	'MofGen! by Chris Wilmer'
_symmetry_space_group_name_H-M	'P1'
_symmetry_Int_Tables_number	1
_symmetry_cell_setting	triclinic
loop_
_symmetry_equiv_pos_as_xyz
  x,y,z
_cell_length_a	12.759401
_cell_length_b	12.645330
_cell_length_c	12.759393
_cell_angle_alpha	90.028974
_cell_angle_beta	90.019596
_cell_angle_gamma	90.017969
loop_
_atom_site_label
_atom_site_type_symbol
_atom_site_fract_x
_atom_site_fract_y
_atom_site_fract_z
Zn1	Zn	1.606245	-0.421980	0.593994
Zn2	Zn	2.106245	0.078020	1.093994
Zn3	Zn	1.606126	-0.599281	0.418318
Zn4	Zn	2.106126	-0.099281	0.918318
Zn5	Zn	1.430543	-0.422033	0.418333
Zn6	Zn	1.930543	0.077967	0.918333
Zn7	Zn	1.430526	-0.599203	0.593960
Zn8	Zn	1.930526	-0.099203	1.093960
O9	O	1.518360	-0.510624	0.506151
O10	O	2.018360	-0.010624	1.006151
O11	O	1.753250	-0.445510	0.570698
O12	O	2.253250	0.054490	1.070698
O13	O	1.582793	-0.575823	0.271299
O14	O	2.082793	-0.075823	0.771299
O15	O	1.453907	-0.273679	0.441655
O16	O	1.953907	0.226321	0.941655
O17	O	1.753163	-0.575772	0.441630
O18	O	2.253163	-0.075772	0.941630
O19	O	1.582994	-0.273640	0.570712
O20	O	2.082994	0.226360	1.070712
O21	O	1.453793	-0.445600	0.271310
O22	O	1.953793	0.054400	0.771310
O23	O	1.283520	-0.445524	0.441622
O24	O	1.783520	0.054476	0.941622
O25	O	1.453878	-0.575639	0.740985
O26	O	1.953878	-0.075639	1.240985
O27	O	1.283507	-0.575690	0.570654
O28	O	1.783507	-0.075690	1.070654
O29	O	1.582977	-0.445435	0.741010
O30	O	2.082977	0.054565	1.241010
O31	O	1.582776	-0.747618	0.441597
O32	O	2.082776	-0.247618	0.941597
O33	O	1.453763	-0.747561	0.570640
O34	O	1.953763	-0.247561	1.070640
C35	C	1.245393	-0.510605	0.506137
C36	C	1.745393	-0.010605	1.006137
C37	C	1.128616	-0.510623	0.506155
C38	C	1.628616	-0.010623	1.006155
C39	C	0.964044	-0.578519	0.573244
C40	C	1.464044	-0.078519	1.073244
C41	C	1.073768	-0.578508	0.573233
C42	C	1.573768	-0.078508	1.073233
C43	C	1.073734	-0.442753	0.439077
C44	C	1.573734	0.057247	0.939077
C45	C	0.964012	-0.442771	0.439083
C46	C	1.464012	0.057229	0.939083
C47	C	1.518283	-0.786054	0.506136
C48	C	2.018283	-0.286054	1.006136
C49	C	1.518347	-0.903884	0.506165
C50	C	2.018347	-0.403884	1.006165
C51	C	1.437519	-1.071456	0.587596
C52	C	1.937519	-0.571456	1.087596
C53	C	1.437106	-0.948897	0.587335
C54	C	1.937106	-0.448897	1.087335
C55	C	1.488371	-0.948486	0.395444
C56	C	1.988371	-0.448486	0.895444
C57	C	1.487878	-1.071085	0.395938
C58	C	1.987878	-0.571085	0.895938
C59	C	1.629644	-1.070971	0.534558
C60	C	2.129644	-0.570971	1.034558
C61	C	1.628962	-0.948364	0.536979
C62	C	2.128962	-0.448364	1.036979
C63	C	1.792393	-0.510644	0.506166
C64	C	2.292393	-0.010644	1.006166
C65	C	1.909170	-0.510652	0.506173
C66	C	2.409170	-0.010652	1.006173
C67	C	1.518439	-0.510522	0.780185
C68	C	2.018439	-0.010522	1.280185
C69	C	1.518472	-0.510479	0.896961
C70	C	2.018472	-0.010479	1.396961
C71	C	1.518466	-0.234119	0.506189
C72	C	2.018466	0.265881	1.006189
C73	C	1.518511	-0.116289	0.506205
C74	C	2.018511	0.383711	1.006205
C75	C	1.518342	-0.510649	0.233184
C76	C	2.018342	-0.010649	0.733184
C77	C	1.518512	-0.510394	0.116408
C78	C	2.018512	-0.010394	0.616408
C79	C	1.585699	-0.442671	0.951838
C80	C	2.085699	0.057329	1.451838
C81	C	1.585717	-0.442625	1.061562
C82	C	2.085717	0.057375	1.561562
C83	C	1.451278	-0.578205	1.061523
C84	C	1.951278	-0.078205	1.561523
C85	C	1.451255	-0.578245	0.951801
C86	C	1.951255	-0.078245	1.451801
H87	H	1.118401	-0.387484	0.384456
H88	H	1.618401	0.112516	0.884456
N89	N	0.904821	-0.369565	0.366739
N90	N	1.404821	0.130435	0.866739
H91	H	0.826991	-0.379883	0.376920
H92	H	1.326991	0.120117	0.876920
H93	H	0.923969	-0.385976	0.291677
H94	H	1.423969	0.114024	0.791677
N95	N	1.658937	-0.909731	0.644901
N96	N	2.158937	-0.409731	1.144901
H97	H	1.669862	-0.972304	0.692835
H98	H	2.169862	-0.472304	1.192835
H99	H	1.601085	-0.863590	0.673640
H100	H	2.101085	-0.363590	1.173640
H101	H	1.545491	-0.919332	0.333144
H102	H	2.045491	-0.419332	0.833144
H103	H	1.544308	-1.100746	0.333227
H104	H	2.044308	-0.600746	0.833227
H105	H	1.455861	-0.918737	0.669434
H106	H	1.955861	-0.418737	1.169434
N107	N	1.378780	-0.651276	1.120689
N108	N	1.878780	-0.151276	1.620689
H109	H	1.421459	-0.700391	1.166217
H110	H	1.921459	-0.200391	1.666217
H111	H	1.336190	-0.694168	1.069218
H112	H	1.836190	-0.194168	1.569218
N113	N	1.462118	-1.110409	0.696707
N114	N	1.962118	-0.610409	1.196707
H115	H	1.526000	-1.157499	0.694441
H116	H	2.026000	-0.657499	1.194441
H117	H	1.400437	-1.151767	0.724636
H118	H	1.900437	-0.651767	1.224636
N119	N	1.329064	-1.112381	0.563043
N120	N	1.829064	-0.612381	1.063043
H121	H	1.332166	-1.159836	0.499426
H122	H	1.832166	-0.659836	0.999426
H123	H	1.280815	-1.050820	0.548450
H124	H	1.780815	-0.550820	1.048450
N125	N	1.665888	-1.111816	0.639677
N126	N	2.165888	-0.611816	1.139677
H127	H	1.614486	-1.089519	0.695659
H128	H	2.114486	-0.589519	1.195659
H129	H	1.737345	-1.081739	0.656211
H130	H	2.237345	-0.581739	1.156211
N131	N	1.327979	-0.910159	0.562443
N132	N	1.827979	-0.410159	1.062443
H133	H	1.277457	-0.937003	0.617243
H134	H	1.777457	-0.437003	1.117243
H135	H	1.306201	-0.937240	0.491210
H136	H	1.806201	-0.437240	0.991210
H137	H	1.406639	-1.099778	0.371919
H138	H	1.906639	-0.599778	0.871919
N139	N	1.381885	-0.907946	0.363041
N140	N	1.881885	-0.407946	0.863041
H141	H	1.352909	-0.860700	0.419914
H142	H	1.852909	-0.360700	0.919914
H143	H	1.332951	-0.969690	0.351670
H144	H	1.832951	-0.469690	0.851670
N145	N	1.713111	-0.907768	0.464183
N146	N	2.213111	-0.407768	0.964183
H147	H	1.680576	-0.859758	0.409952
H148	H	2.180576	-0.359758	0.909952
H149	H	1.748125	-0.969440	0.428075
H150	H	2.248125	-0.469440	0.928075
H151	H	1.689984	-1.099963	0.475277
H152	H	2.189984	-0.599963	0.975277
H153	H	1.640429	-0.387488	0.907191
H154	H	2.140429	0.112512	1.407191
H155	H	1.640459	-0.387407	1.106238
H156	H	2.140459	0.112593	1.606238
H157	H	1.396503	-0.633462	0.907119
H158	H	1.896503	-0.133462	1.407119
H159	H	0.919394	-0.633794	0.627872
H160	H	1.419394	-0.133794	1.127872
H161	H	1.118441	-0.633773	0.627848
H162	H	1.618441	-0.133773	1.127848
