data_functionalizedCrystal
_audit_creation_method	'MofGen! by Chris Wilmer'
_symmetry_space_group_name_H-M	'P1'
_symmetry_Int_Tables_number	1
_symmetry_cell_setting	triclinic
loop_
_symmetry_equiv_pos_as_xyz
  x,y,z
_cell_length_a	15.944486
_cell_length_b	15.021413
_cell_length_c	14.971486
_cell_angle_alpha	89.996188
_cell_angle_beta	96.456729
_cell_angle_gamma	89.989186
loop_
_atom_site_label
_atom_site_type_symbol
_atom_site_fract_x
_atom_site_fract_y
_atom_site_fract_z
O1	O	-1.114672	0.074105	0.115073
O2	O	-0.870129	0.074091	0.129356
O3	O	-0.998955	0.074092	-0.007994
O4	O	-0.985846	0.074104	0.252424
O5	O	-0.998934	-0.073973	-0.007974
O6	O	-0.870108	-0.073974	0.129376
O7	O	-1.114652	-0.073960	0.115093
Zn8	Zn	-0.992377	-0.097475	0.122238
Zn9	Zn	-0.992404	0.097606	0.122212
O10	O	-0.985825	-0.073961	0.252443
C11	C	-0.838823	0.000057	0.128783
C12	C	-0.745572	0.000051	0.127036
N13	N	-0.992364	-0.230613	0.122255
C14	C	-0.454111	0.000063	0.206844
C15	C	-0.515111	0.073067	0.165353
C16	C	-0.409928	0.000066	0.120689
C17	C	-0.515076	-0.072912	0.165349
C18	C	-0.574841	0.000057	0.123812
C19	C	-0.469700	0.073130	0.079174
C20	C	-0.469659	-0.072915	0.079182
C21	C	-0.530642	0.000107	0.037628
C22	C	-0.314925	0.000072	0.118892
C23	C	-0.669842	0.000058	0.125602
C24	C	-0.932786	-0.470296	0.185736
C25	C	-1.008705	-0.529625	0.203082
C26	C	-0.992386	-0.412219	0.122232
C27	C	-0.916487	-0.529632	0.104906
C28	C	-0.992400	-0.587644	0.122213
C29	C	-1.068343	-0.470242	0.139619
C30	C	-0.976075	-0.470244	0.041408
C31	C	-1.052049	-0.529546	0.058720
C32	C	-0.992377	-0.311162	0.122246
C33	C	-0.992418	-0.688699	0.122199
C34	C	-0.145956	0.000072	0.115678
C35	C	-0.239202	0.000071	0.117462
C36	C	-0.998358	0.000060	-0.041308
C37	C	-0.996601	0.000060	-0.140603
N38	N	-0.992423	0.230744	0.122188
C39	C	-1.072283	0.000064	-0.197928
C40	C	-1.070628	0.000073	-0.291226
C41	C	-0.993289	0.000072	-0.327195
C42	C	-0.917601	0.000071	-0.269862
C43	C	-0.919258	0.000068	-0.176567
C44	C	-0.914154	0.000074	-0.464320
C45	C	-0.912497	0.000075	-0.557622
C46	C	-1.065523	0.000079	-0.578979
C47	C	-1.067180	0.000076	-0.485684
C48	C	-0.991492	0.000073	-0.428357
C49	C	-0.986422	0.000073	0.285757
C50	C	-0.988179	0.000078	0.385052
H51	H	-0.535252	0.134786	0.201787
O52	O	-0.410052	0.000156	0.301558
H53	H	-0.340697	-0.000471	0.299408
O54	O	-0.829081	0.000070	-0.596417
H55	H	-0.840648	0.000057	-0.670922
H56	H	-0.854631	0.000075	-0.299156
O57	O	-1.153394	-0.435837	0.159124
H58	H	-1.195662	-0.492902	0.168772
O59	O	-1.152259	0.000063	-0.353051
H60	H	-1.189285	0.060403	-0.340262
O61	O	-0.443213	0.154980	0.030940
H62	H	-0.373703	0.154359	0.030031
O63	O	-0.832521	0.000063	-0.402484
H64	H	-0.778464	0.000050	-0.443168
H65	H	-0.563751	0.000143	-0.033940
H66	H	-1.102512	-0.555398	0.005006
O67	O	-0.837631	0.000055	-0.114730
H68	H	-0.783573	0.000044	-0.155414
H69	H	-0.962244	-0.444140	-0.026913
H70	H	-0.449499	-0.134639	0.042780
H71	H	-0.535178	-0.134628	0.201811
H72	H	-1.127151	0.000084	-0.625659
O73	O	-0.866087	-0.435826	0.256917
H74	H	-0.896327	-0.394152	0.305490
O75	O	-1.026972	-0.564232	0.293596
H76	H	-0.977400	-0.540527	0.346202
H77	H	-1.135261	0.000060	-0.168650
H78	H	-1.130156	0.000071	-0.456400
O79	O	-0.831462	-0.564190	0.085493
H80	H	-0.782101	-0.540451	0.138306
