data_functionalizedCrystal
_audit_creation_method	'MofGen! by Chris Wilmer'
_symmetry_space_group_name_H-M	'P1'
_symmetry_Int_Tables_number	1
_symmetry_cell_setting	triclinic
loop_
_symmetry_equiv_pos_as_xyz
  x,y,z
_cell_length_a	21.295411
_cell_length_b	12.827893
_cell_length_c	12.827892
_cell_angle_alpha	90.015172
_cell_angle_beta	90.013331
_cell_angle_gamma	90.022557
loop_
_atom_site_label
_atom_site_type_symbol
_atom_site_fract_x
_atom_site_fract_y
_atom_site_fract_z
Zn1	Zn	-0.355914	-1.597705	0.416153
Zn2	Zn	-0.250655	-1.597589	0.590880
Zn3	Zn	-0.250663	-1.422936	0.416154
Zn4	Zn	-0.355890	-1.422932	0.590853
O5	O	-0.303281	-1.510291	0.503510
O6	O	-0.341958	-1.743926	0.439342
O7	O	-0.162566	-1.574375	0.567714
O8	O	-0.264638	-1.446170	0.269917
O9	O	-0.264624	-1.743841	0.567713
O10	O	-0.341966	-1.574571	0.269917
O11	O	-0.162572	-1.446058	0.439343
O12	O	-0.264615	-1.276700	0.439317
O13	O	-0.443983	-1.446163	0.567666
O14	O	-0.341925	-1.276697	0.567667
O15	O	-0.444000	-1.574567	0.439315
O16	O	-0.264601	-1.574371	0.737113
O17	O	-0.341917	-1.446051	0.737092
C18	C	-0.303269	-1.238781	0.503490
C19	C	-0.303278	-1.122628	0.503506
C20	C	-0.467471	-1.510377	0.503488
C21	C	-0.537439	-1.510414	0.503478
C22	C	-0.303269	-1.510226	0.775020
C23	C	-0.303286	-1.510294	0.891173
C24	C	-0.570316	-1.577272	0.436643
C25	C	-0.636058	-1.577270	0.436598
C26	C	-0.668922	-1.510422	0.503406
C27	C	-0.636037	-1.443552	0.570246
C28	C	-0.570296	-1.443548	0.570282
N29	N	-0.772145	-1.502384	0.594824
N30	N	-0.834597	-1.502394	0.594786
C31	C	-0.866996	-1.510429	0.503300
N32	N	-0.834585	-1.518474	0.411851
N33	N	-0.772128	-1.518469	0.411889
C34	C	-0.740207	-1.510419	0.503374
C35	C	-0.971159	-1.577288	0.436410
C36	C	-1.036903	-1.577280	0.436363
C37	C	-1.036880	-1.443567	0.570021
C38	C	-0.971137	-1.443570	0.570059
C39	C	-0.938281	-1.510436	0.503255
C40	C	-0.139729	-1.510264	0.503456
C41	C	-0.069761	-1.510430	0.503171
C42	C	-0.303293	-1.782861	0.503531
C43	C	-0.303298	-1.899014	0.503540
C44	C	-0.341475	-1.070869	0.567117
C45	C	-0.341486	-0.950819	0.567136
C46	C	-0.303305	-1.510384	0.230940
C47	C	-0.303316	-1.510424	0.114787
C48	C	-0.265002	-1.446846	0.943041
C49	C	-0.265018	-1.446915	1.063091
H50	H	-0.543568	-1.631718	0.382245
Br51	Br	-0.680687	-1.667986	0.345860
Br52	Br	-0.926564	-1.668030	0.345747
H53	H	-0.232244	-1.392589	1.107697
H54	H	-1.063670	-1.631722	0.381932
H55	H	-0.336097	-1.564743	1.070189
H56	H	-1.063636	-1.389127	0.624408
Br57	Br	-0.357933	-1.600932	0.965282
H58	H	-0.662798	-1.389121	0.624639
H59	H	-0.374170	-1.115433	0.621560
Br60	Br	-0.525674	-1.352804	0.660993
H61	H	-0.270593	-0.943518	0.449081
H62	H	-0.374185	-0.906307	0.621599
H63	H	-0.944369	-1.389134	0.624490
H64	H	-0.270588	-1.078063	0.449056
Br65	Br	-0.210344	-1.356225	0.868932
