data_functionalizedCrystal
_audit_creation_method	'MofGen! by Chris Wilmer'
_symmetry_space_group_name_H-M	'P1'
_symmetry_Int_Tables_number	1
_symmetry_cell_setting	triclinic
loop_
_symmetry_equiv_pos_as_xyz
  x,y,z
_cell_length_a	16.992694
_cell_length_b	15.500227
_cell_length_c	16.956984
_cell_angle_alpha	87.384799
_cell_angle_beta	83.360821
_cell_angle_gamma	93.032150
loop_
_atom_site_label
_atom_site_type_symbol
_atom_site_fract_x
_atom_site_fract_y
_atom_site_fract_z
O1	O	1.033342	0.071837	0.164936
O2	O	0.805178	0.071863	0.163087
O3	O	0.932968	0.071842	0.048807
O4	O	0.905553	0.071858	0.279217
O5	O	0.925215	-0.072045	0.055713
O6	O	0.797425	-0.072025	0.169993
O7	O	1.025590	-0.072050	0.171842
Cu8	Cu	0.910800	-0.085176	0.171548
Cu9	Cu	0.919968	0.084988	0.163381
O10	O	0.897800	-0.072030	0.286122
C11	C	0.772243	-0.000078	0.164164
C12	C	0.685659	-0.000068	0.157073
N13	N	0.904357	-0.204859	0.177292
C14	C	0.630984	-0.000064	0.225487
C15	C	0.549629	-0.000077	0.218821
C16	C	0.522951	-0.000087	0.143738
C17	C	0.577633	-0.000093	0.075319
C18	C	0.658986	-0.000087	0.081986
C19	C	0.281143	-0.000112	0.116104
C20	C	0.199784	-0.000115	0.109441
C21	C	0.171786	-0.000101	0.252944
C22	C	0.253142	-0.000089	0.259605
C23	C	0.307816	-0.000100	0.191186
N24	N	0.439794	-0.000097	0.136922
N25	N	0.390972	-0.000096	0.198003
C26	C	0.958522	-0.250145	0.128887
C27	C	0.953656	-0.340717	0.133239
C28	C	0.894628	-0.386002	0.186000
C29	C	0.840457	-0.340710	0.234407
C30	C	0.845320	-0.250140	0.230050
C31	C	0.877110	-0.659466	0.201681
C32	C	0.872252	-0.750043	0.206036
C33	C	0.985451	-0.750043	0.104867
C34	C	0.990312	-0.659471	0.100518
C35	C	0.936138	-0.614187	0.148922
C36	C	0.889654	-0.478581	0.190452
C37	C	0.941109	-0.521610	0.144466
C38	C	1.058524	-0.000108	0.170765
C39	C	1.145109	-0.000112	0.177856
C40	C	0.930495	-0.000101	0.022641
C41	C	0.934669	-0.000101	-0.065614
N42	N	0.926418	0.204672	0.157631
C43	C	0.864884	-0.000089	-0.102146
C44	C	0.868810	-0.000092	-0.185070
C45	C	0.942523	-0.000100	-0.231462
C46	C	1.012312	-0.000114	-0.194925
C47	C	1.008385	-0.000118	-0.112001
C48	C	0.961962	-0.000097	-0.479996
C49	C	0.965884	-0.000091	-0.562926
C50	C	0.822381	-0.000070	-0.553065
C51	C	0.818461	-0.000068	-0.470141
C52	C	0.888250	-0.000087	-0.433610
N53	N	0.946538	-0.000100	-0.316225
N54	N	0.884234	-0.000093	-0.348849
C55	C	0.900273	-0.000084	0.312288
C56	C	0.896099	-0.000079	0.400543
H57	H	0.652698	-0.000056	0.286627
H58	H	0.801212	-0.213269	0.269466
O59	O	1.015890	-0.206293	0.077567
C60	C	1.062665	-0.265689	0.035791
H61	H	1.027243	-0.330255	0.035941
H62	H	1.118479	-0.275309	0.065769
C63	C	1.129719	-0.151057	-0.050728
C64	C	1.086211	-0.230356	-0.050549
H65	H	1.144247	-0.129261	-0.103985
H66	H	1.098209	-0.111039	-0.022581
H67	H	1.176225	-0.159084	-0.025742
H68	H	1.039701	-0.222326	-0.075526
H69	H	1.117714	-0.270371	-0.078702
H70	H	1.018789	-0.000110	-0.450264
H71	H	0.325650	-0.000121	0.060392
O72	O	1.083854	-0.000085	-0.240107
C73	C	1.072357	-0.000099	-0.321131
H74	H	1.012699	0.027151	-0.329527
H75	H	1.073153	-0.069128	-0.341591
C76	C	1.212587	0.022853	-0.360346
C77	C	1.139316	0.056329	-0.370659
H78	H	1.253891	0.057658	-0.390898
H79	H	1.220333	0.022860	-0.305758
H80	H	1.213238	-0.034670	-0.377395
H81	H	1.138662	0.113848	-0.353601
H82	H	1.131571	0.056334	-0.425245
O83	O	1.047677	-0.615618	0.049194
C84	C	1.094455	-0.675010	0.007417
H85	H	1.059036	-0.739577	0.007565
H86	H	1.150269	-0.684629	0.037397
C87	C	1.161507	-0.560372	-0.079096
C88	C	1.118001	-0.639673	-0.078921
H89	H	1.176035	-0.538574	-0.132353
H90	H	1.129994	-0.520357	-0.050949
H91	H	1.208013	-0.568399	-0.054109
H92	H	1.071492	-0.631643	-0.103899
H93	H	1.149507	-0.679686	-0.107075
H94	H	1.065211	-0.000129	-0.082258
H95	H	0.703502	-0.000090	0.026275
H96	H	0.505115	-0.000073	0.274532
H97	H	1.029556	-0.786921	0.065458
O98	O	0.746898	-0.000177	-0.424985
C99	C	0.736310	-0.074707	-0.373165
H100	H	0.796679	-0.099563	-0.363835
H101	H	0.699598	-0.126883	-0.400185
C102	C	0.618642	-0.021534	-0.304118
C103	C	0.692789	-0.052058	-0.292655
H104	H	0.591793	-0.007565	-0.254457
H105	H	0.625773	0.028678	-0.339033
H106	H	0.588058	-0.065019	-0.326638
H107	H	0.723374	-0.008570	-0.270145
H108	H	0.685662	-0.102262	-0.257735
O109	O	0.173966	-0.000012	0.036454
C110	C	0.206352	0.074514	-0.009142
H111	H	0.262780	0.099361	0.014898
H112	H	0.161432	0.126698	-0.005449
C113	C	0.156877	0.021349	-0.125941
C114	C	0.226186	0.051862	-0.096418
H115	H	0.169108	0.007379	-0.179778
H116	H	0.135055	-0.028859	-0.095222
H117	H	0.119450	0.064841	-0.122856
H118	H	0.263607	0.008367	-0.099495
H119	H	0.248014	0.102063	-0.127141
O120	O	0.551588	-0.000066	0.002442
C121	C	0.468058	-0.000090	0.011226
H122	H	0.446378	0.027156	0.070671
H123	H	0.441924	-0.069122	0.009248
C124	C	0.468031	0.022865	-0.129815
C125	C	0.441403	0.056336	-0.056808
H126	H	0.451588	0.057668	-0.171783
H127	H	0.524306	0.022878	-0.135734
H128	H	0.446251	-0.034660	-0.131453
H129	H	0.463192	0.113857	-0.055167
H130	H	0.385131	0.056334	-0.050890
O131	O	0.814831	-0.793900	0.257301
C132	C	0.768067	-0.734512	0.299100
H133	H	0.772767	-0.669954	0.263383
H134	H	0.790095	-0.724868	0.359267
C135	C	0.675103	-0.849164	0.355597
C136	C	0.680871	-0.769875	0.311726
H137	H	0.621318	-0.870979	0.363389
H138	H	0.706610	-0.889176	0.327439
H139	H	0.693465	-0.841117	0.405731
H140	H	0.662519	-0.777925	0.261589
H141	H	0.649359	-0.729865	0.339876
O142	O	0.278918	-0.000123	0.332604
C143	C	0.213215	-0.000101	0.391560
H144	H	0.157864	-0.027348	0.367082
H145	H	0.203968	0.068930	0.409599
C146	C	0.296691	-0.023056	0.494722
C147	C	0.228709	-0.056528	0.464660
H148	H	0.306248	-0.057859	0.539815
H149	H	0.340957	-0.023068	0.455003
H150	H	0.288976	0.034469	0.509748
H151	H	0.236428	-0.114048	0.449625
H152	H	0.184444	-0.056527	0.504379
O153	O	0.832217	-0.522537	0.241616
C154	C	0.756948	-0.500407	0.222687
H155	H	0.762026	-0.475509	0.157888
H156	H	0.733976	-0.447839	0.262708
C157	C	0.692662	-0.611454	0.315065
C158	C	0.698898	-0.580881	0.235476
H159	H	0.656853	-0.661093	0.322957
H160	H	0.743372	-0.626362	0.327821
H161	H	0.673522	-0.567640	0.348407
H162	H	0.718047	-0.624691	0.202136
H163	H	0.648190	-0.565982	0.222715
H164	H	0.127262	-0.000093	0.308647
O165	O	0.754531	-0.000173	-0.588455
C166	C	0.705917	-0.074700	-0.561637
H167	H	0.722132	-0.099550	-0.501641
H168	H	0.715260	-0.126881	-0.606491
C169	C	0.598373	-0.021533	-0.626484
C170	C	0.618284	-0.052050	-0.552792
H171	H	0.544317	-0.007563	-0.621031
H172	H	0.631126	0.028676	-0.644554
H173	H	0.606165	-0.065022	-0.663855
H174	H	0.610502	-0.008557	-0.515426
H175	H	0.585528	-0.102252	-0.534715
H176	H	0.997761	-0.377588	0.093824
O177	O	0.824605	-0.615395	0.248746
C178	C	0.866057	-0.563010	0.297923
H179	H	0.929932	-0.549428	0.269564
H180	H	0.865692	-0.597913	0.358629
C181	C	0.747093	-0.493669	0.342777
C182	C	0.825543	-0.476981	0.307943
H183	H	0.722101	-0.440604	0.348961
H184	H	0.719164	-0.528963	0.309648
H185	H	0.746800	-0.522757	0.393361
H186	H	0.825835	-0.447904	0.257356
H187	H	0.853471	-0.441680	0.341063
O188	O	0.783143	-0.384600	0.285764
C189	C	0.791933	-0.362465	0.364129
H190	H	0.825569	-0.296702	0.362804
H191	H	0.826465	-0.413430	0.393643
C192	C	0.668136	-0.439048	0.413281
C193	C	0.709443	-0.358273	0.411654
H194	H	0.617253	-0.436465	0.442598
H195	H	0.662215	-0.453964	0.360485
H196	H	0.696921	-0.481510	0.437874
H197	H	0.680663	-0.315815	0.387052
H198	H	0.715357	-0.343350	0.464447
H199	H	0.989168	-0.484736	0.101504
H200	H	0.804860	-0.000078	-0.064379
H201	H	0.811985	-0.000076	-0.214811
H202	H	1.025913	-0.000091	-0.600697
