data_functionalizedCrystal
_audit_creation_method	'MofGen! by Chris Wilmer'
_symmetry_space_group_name_H-M	'P1'
_symmetry_Int_Tables_number	1
_symmetry_cell_setting	triclinic
loop_
_symmetry_equiv_pos_as_xyz
  x,y,z
_cell_length_a	16.625548
_cell_length_b	16.625546
_cell_length_c	16.625539
_cell_angle_alpha	90.030397
_cell_angle_beta	90.020568
_cell_angle_gamma	90.023536
loop_
_atom_site_label
_atom_site_type_symbol
_atom_site_fract_x
_atom_site_fract_y
_atom_site_fract_z
Zn1	Zn	1.232680	-0.320977	0.455898
Zn2	Zn	1.566014	0.012356	0.789231
Zn3	Zn	1.899347	0.345689	1.122564
Zn4	Zn	1.232584	-0.455820	0.321060
Zn5	Zn	1.565917	-0.122487	0.654393
Zn6	Zn	1.899250	0.210846	0.987727
Zn7	Zn	1.097842	-0.321008	0.321078
Zn8	Zn	1.431176	0.012325	0.654411
Zn9	Zn	1.764509	0.345659	0.987745
Zn10	Zn	1.097813	-0.455774	0.455850
Zn11	Zn	1.431146	-0.122441	0.789183
Zn12	Zn	1.764479	0.210893	1.122516
O13	O	1.165230	-0.388395	0.388471
O14	O	1.498563	-0.055062	0.721805
O15	O	1.831896	0.278272	1.055138
O16	O	1.345500	-0.338871	0.438024
O17	O	1.678833	-0.005538	0.771357
O18	O	2.012167	0.327796	1.104690
O19	O	1.214682	-0.437969	0.208230
O20	O	1.548015	-0.104636	0.541563
O21	O	1.881348	0.228697	0.874897
O22	O	1.115782	-0.208171	0.338990
O23	O	1.449115	0.125162	0.672323
O24	O	1.782448	0.458495	1.005657
O25	O	1.345429	-0.437940	0.338959
O26	O	1.678762	-0.104606	0.672292
O27	O	2.012096	0.228727	1.005625
O28	O	1.214847	-0.208149	0.438041
O29	O	1.548180	0.125184	0.771375
O30	O	1.881513	0.458518	1.104708
O31	O	1.115688	-0.338923	0.208243
O32	O	1.449021	-0.005590	0.541577
O33	O	1.782355	0.327743	0.874910
O34	O	0.985006	-0.338878	0.338944
O35	O	1.318339	-0.005545	0.672277
O36	O	1.651673	0.327788	1.005610
O37	O	1.115731	-0.437861	0.568689
O38	O	1.449065	-0.104527	0.902022
O39	O	1.782398	0.228806	1.235355
O40	O	0.984984	-0.437890	0.437960
O41	O	1.318318	-0.104557	0.771293
O42	O	1.651651	0.228776	1.104626
O43	O	1.214818	-0.338826	0.568724
O44	O	1.548151	-0.005493	0.902057
O45	O	1.881485	0.327841	1.235390
O46	O	1.214653	-0.568647	0.338912
O47	O	1.547986	-0.235313	0.672246
O48	O	1.881320	0.098020	1.005579
O49	O	1.115637	-0.568613	0.437942
O50	O	1.448971	-0.235279	0.771275
O51	O	1.782304	0.098054	1.104609
C52	C	0.955739	-0.388383	0.388449
C53	C	1.289072	-0.055050	0.721782
C54	C	1.622406	0.278283	1.055116
C55	C	0.866118	-0.388398	0.388458
C56	C	1.199451	-0.055064	0.721792
C57	C	1.532784	0.278269	1.055125
C58	C	1.165153	-0.597886	0.388438
C59	C	1.498487	-0.264552	0.721771
C60	C	1.831820	0.068781	1.055104
C61	C	1.165195	-0.687507	0.388450
C62	C	1.498528	-0.354174	0.721783
C63	C	1.831861	-0.020840	1.055117
C64	C	0.537942	-0.388403	0.388493
C65	C	0.871276	-0.055070	0.721826
C66	C	1.204609	0.278264	1.055159
C67	C	0.629251	-0.388399	0.388481
C68	C	0.962584	-0.055066	0.721814
C69	C	1.295917	0.278267	1.055147
C70	C	0.702027	-0.388401	0.388475
C71	C	1.035360	-0.055068	0.721808
C72	C	1.368694	0.278266	1.055142
C73	C	0.793341	-0.388396	0.388464
C74	C	1.126675	-0.055063	0.721797
C75	C	1.460008	0.278270	1.055131
C76	C	1.165335	-1.015682	0.388534
C77	C	1.498669	-0.682349	0.721867
C78	C	1.832002	-0.349016	1.055201
C79	C	1.165294	-0.924374	0.388513
C80	C	1.498627	-0.591041	0.721846
C81	C	1.831960	-0.257707	1.055180
C82	C	1.165264	-0.851598	0.388492
C83	C	1.498598	-0.518264	0.721825
C84	C	1.831931	-0.184931	1.055158
C85	C	1.165224	-0.760283	0.388471
C86	C	1.498557	-0.426950	0.721805
C87	C	1.831891	-0.093617	1.055138
C88	C	1.375539	-0.388407	0.388494
C89	C	1.708872	-0.055074	0.721828
C90	C	2.042205	0.278260	1.055161
C91	C	1.465160	-0.388412	0.388504
C92	C	1.798493	-0.055079	0.721838
C93	C	2.131826	0.278254	1.055171
C94	C	1.165282	-0.388335	0.598780
C95	C	1.498616	-0.055001	0.932114
C96	C	1.831949	0.278332	1.265447
C97	C	1.165305	-0.388309	0.688402
C98	C	1.498638	-0.054976	1.021735
C99	C	1.831971	0.278357	1.355068
C100	C	1.165328	-0.178086	0.388523
C101	C	1.498662	0.155247	0.721856
C102	C	1.831995	0.488581	1.055190
C103	C	1.165370	-0.088465	0.388545
C104	C	1.498704	0.244869	0.721878
C105	C	1.832037	0.578202	1.055212
C106	C	1.165224	-0.388397	0.178981
C107	C	1.498557	-0.055063	0.512314
C108	C	1.831891	0.278270	0.845647
C109	C	1.165358	-0.388195	0.089360
C110	C	1.498691	-0.054862	0.422693
C111	C	1.832025	0.278472	0.756027
C112	C	1.165342	-0.388219	1.016577
C113	C	1.498675	-0.054886	1.349911
C114	C	1.832008	0.278448	1.683244
C115	C	1.165329	-0.388247	0.925269
C116	C	1.498662	-0.054913	1.258602
C117	C	1.831996	0.278420	1.591936
C118	C	1.165324	-0.388265	0.852492
C119	C	1.498657	-0.054931	1.185826
C120	C	1.831990	0.278402	1.519159
C121	C	1.165310	-0.388291	0.761178
C122	C	1.498643	-0.054958	1.094511
C123	C	1.831977	0.278376	1.427845
