data_functionalizedCrystal
_audit_creation_method	'MofGen! by Chris Wilmer'
_symmetry_space_group_name_H-M	'P1'
_symmetry_Int_Tables_number	1
_symmetry_cell_setting	triclinic
loop_
_symmetry_equiv_pos_as_xyz
  x,y,z
_cell_length_a	15.995350
_cell_length_b	9.065215
_cell_length_c	7.540329
_cell_angle_alpha	89.997358
_cell_angle_beta	89.999312
_cell_angle_gamma	95.746464
loop_
_atom_site_label
_atom_site_type_symbol
_atom_site_fract_x
_atom_site_fract_y
_atom_site_fract_z
O1	O	-1.112425	0.190160	-0.147328
O2	O	-0.868827	0.213643	-0.147364
O3	O	-0.995662	-0.012860	-0.147338
O4	O	-0.985590	0.416663	-0.147355
O5	O	-0.995655	-0.012862	0.147627
O6	O	-0.868820	0.213640	0.147601
O7	O	-1.112417	0.190158	0.147637
Cu8	Cu	-0.990618	0.201899	0.174551
Cu9	Cu	-0.990627	0.201902	-0.174279
O10	O	-0.985582	0.416660	0.147610
C11	C	-0.837622	0.212671	0.000114
C12	C	-0.744649	0.209760	0.000100
C13	C	-0.994691	-0.067825	0.000143
C14	C	-0.991798	-0.231600	0.000137
C15	C	-1.143623	0.191130	0.000155
C16	C	-1.236595	0.194040	0.000157
C17	C	-0.406822	0.199308	0.000137
C18	C	-0.453034	0.037997	0.000801
C19	C	-0.549746	0.040908	0.000124
C20	C	-0.574422	0.204492	0.000120
C21	C	-0.533942	0.284058	-0.168316
C22	C	-0.437276	0.280006	-0.168444
C23	C	-0.436954	0.283336	0.166986
C24	C	-0.533899	0.283297	0.169200
C25	C	-0.669142	0.207431	0.000104
C26	C	-0.312102	0.196374	0.000141
C27	C	-0.986553	0.471625	0.000126
C28	C	-0.989446	0.635400	0.000120
N29	N	-0.990617	0.201895	0.419900
N30	N	-0.990634	0.201893	-0.419627
H31	H	-0.434020	-0.026484	0.121593
O32	O	-0.569476	0.206359	0.334274
H33	H	-0.600871	0.286215	0.416339
H34	H	-0.405925	0.398438	-0.176092
O35	O	-0.586776	-0.041946	0.160052
H36	H	-0.656045	-0.039943	0.159732
O37	O	-0.586031	-0.042484	-0.160085
H38	H	-0.558965	0.011057	-0.282435
O39	O	-0.396069	0.440870	0.168499
H40	H	-0.445382	0.518663	0.164154
O41	O	-0.426438	-0.047044	-0.158290
H42	H	-0.380452	0.025082	-0.237837
O43	O	-0.412437	0.203124	-0.335195
H44	H	-0.469446	0.169179	-0.414981
H45	H	-0.561901	0.228798	-0.293666
H46	H	-0.548978	0.404240	-0.174582
H47	H	-0.550167	0.402588	0.179370
O48	O	-0.409240	0.213469	0.336112
H49	H	-0.373676	0.118065	0.303128
