data_functionalizedCrystal
_audit_creation_method	'MofGen! by Chris Wilmer'
_symmetry_space_group_name_H-M	'P1'
_symmetry_Int_Tables_number	1
_symmetry_cell_setting	triclinic
loop_
_symmetry_equiv_pos_as_xyz
  x,y,z
_cell_length_a	19.805407
_cell_length_b	18.050589
_cell_length_c	18.050582
_cell_angle_alpha	89.981795
_cell_angle_beta	89.984143
_cell_angle_gamma	90.028221
loop_
_atom_site_label
_atom_site_type_symbol
_atom_site_fract_x
_atom_site_fract_y
_atom_site_fract_z
Zn1	Zn	1.034702	-0.295707	-0.419954
Zn2	Zn	1.534702	0.204293	0.080046
Zn3	Zn	1.034621	-0.419890	-0.295773
Zn4	Zn	1.534621	0.080110	0.204227
Zn5	Zn	0.921524	-0.295718	-0.295776
Zn6	Zn	1.421524	0.204282	0.204224
Zn7	Zn	0.921477	-0.419859	-0.419920
Zn8	Zn	1.421477	0.080141	0.080080
O9	O	0.978081	-0.357794	-0.357855
O10	O	1.478081	0.142206	0.142145
O11	O	1.129408	-0.312188	-0.403494
O12	O	1.629408	0.187812	0.096506
O13	O	1.019604	-0.403436	-0.191849
O14	O	1.519604	0.096564	0.308151
O15	O	0.936592	-0.191792	-0.312264
O16	O	1.436592	0.308208	0.187736
O17	O	1.129348	-0.403425	-0.312259
O18	O	1.629348	0.096575	0.187741
O19	O	1.019743	-0.191784	-0.403497
O20	O	1.519743	0.308216	0.096503
O21	O	0.936513	-0.312208	-0.191851
O22	O	1.436513	0.187792	0.308149
O23	O	0.826801	-0.312178	-0.312230
O24	O	1.326801	0.187822	0.187770
O25	O	0.936511	-0.403373	-0.523849
O26	O	1.436511	0.096627	-0.023849
O27	O	0.826767	-0.403384	-0.403438
O28	O	1.326767	0.096616	0.096562
O29	O	1.019697	-0.312158	-0.523874
O30	O	1.519697	0.187842	-0.023874
O31	O	1.019558	-0.523810	-0.312226
O32	O	1.519558	-0.023810	0.187774
O33	O	0.936432	-0.523788	-0.403436
O34	O	1.436432	-0.023788	0.096564
C35	C	0.802225	-0.357779	-0.357831
C36	C	1.302225	0.142221	0.142169
C37	C	0.726993	-0.357791	-0.357839
C38	C	1.226993	0.142209	0.142161
C39	C	0.977999	-0.550746	-0.357843
C40	C	1.477999	-0.050746	0.142157
C41	C	0.978026	-0.633291	-0.357863
C42	C	1.478026	-0.133291	0.142137
C43	C	0.691649	-0.405354	-0.405254
C44	C	1.191649	0.094646	0.094746
C45	C	0.620960	-0.405355	-0.405264
C46	C	1.120960	0.094645	0.094736
C47	C	0.585618	-0.357797	-0.357855
C48	C	1.085618	0.142203	0.142145
C49	C	0.620967	-0.310229	-0.310438
C50	C	1.120967	0.189771	0.189562
C51	C	0.691654	-0.310225	-0.310432
C52	C	1.191654	0.189775	0.189568
C53	C	0.335894	-0.310246	-0.310463
C54	C	0.835894	0.189754	0.189537
C55	C	0.265202	-0.310255	-0.310471
C56	C	0.765202	0.189745	0.189529
C57	C	0.265200	-0.405376	-0.405295
C58	C	0.765200	0.094624	0.094705
C59	C	0.335887	-0.405371	-0.405289
C60	C	0.835887	0.094629	0.094711
C61	C	0.371230	-0.357801	-0.357875
C62	C	0.871230	0.142199	0.142125
C63	C	0.447879	-0.357799	-0.357865
C64	C	0.947879	0.142201	0.142135
C65	C	0.508970	-0.357802	-0.357861
C66	C	1.008970	0.142198	0.142139
C67	C	0.932867	-0.832757	-0.407445
C68	C	1.432867	-0.332757	0.092555
C69	C	0.916372	-0.882191	-0.339678
C70	C	1.416372	-0.382191	0.160322
C71	C	0.978093	-0.784422	-0.357872
C72	C	1.478093	-0.284422	0.142128
C73	C	0.994620	-0.882070	-0.425648
C74	C	1.494620	-0.382070	0.074352
C75	C	0.978156	-0.930407	-0.357888
C76	C	1.478156	-0.430407	0.142112
C77	C	0.961566	-0.832769	-0.290069
C78	C	1.461566	-0.332769	0.209931
C79	C	1.039843	-0.832643	-0.376085
C80	C	1.539843	-0.332643	0.123915
C81	C	1.023372	-0.882055	-0.308270
C82	C	1.523372	-0.382055	0.191730
C83	C	0.978055	-0.700324	-0.357865
C84	C	1.478055	-0.200324	0.142135
C85	C	0.978194	-1.014503	-0.357888
C86	C	1.478194	-0.514503	0.142112
C87	C	1.154624	-0.357808	-0.357880
C88	C	1.654624	0.142192	0.142120
C89	C	1.229856	-0.357815	-0.357890
C90	C	1.729856	0.142185	0.142110
C91	C	0.978108	-0.357761	-0.551561
C92	C	1.478108	0.142239	-0.051561
C93	C	0.978119	-0.357747	-0.634107
C94	C	1.478119	0.142253	-0.134107
C95	C	0.978182	-0.164088	-0.357884
C96	C	1.478182	0.335912	0.142116
C97	C	0.978224	-0.081542	-0.357896
C98	C	1.478224	0.418458	0.142104
C99	C	0.932917	-0.407281	-0.833544
C100	C	1.432917	0.092719	-0.333544
C101	C	0.994669	-0.425435	-0.882938
C102	C	1.494669	0.074565	-0.382938
C103	C	0.978152	-0.357690	-0.785237
C104	C	1.478152	0.142310	-0.285237
C105	C	0.916434	-0.339516	-0.882925
C106	C	1.416434	0.160484	-0.382925
C107	C	0.978179	-0.357637	-0.931223
C108	C	1.478179	0.142363	-0.431223
C109	C	1.039937	-0.375879	-0.833544
C110	C	1.539937	0.124121	-0.333544
C111	C	0.961661	-0.289928	-0.833527
C112	C	1.461661	0.210072	-0.333527
C113	C	1.023455	-0.308056	-0.882899
C114	C	1.523455	0.191944	-0.382899
C115	C	0.978136	-0.357723	-0.701139
C116	C	1.478136	0.142277	-0.201139
C117	C	0.978202	-0.357604	-1.015319
C118	C	1.478202	0.142396	-0.515319
C119	C	0.978094	-0.357773	-0.164903
C120	C	1.478094	0.142227	0.335097
C121	C	0.978214	-0.357578	-0.082358
C122	C	1.478214	0.142422	0.417642
H123	H	0.720419	-0.444083	-0.443857
H124	H	1.220419	0.055917	0.056143
Br125	Br	1.017948	-0.520906	-0.919112
Br126	Br	1.517948	-0.020906	-0.419112
H127	H	0.864229	-0.324166	-0.904617
H128	H	1.364229	0.175834	-0.404617
Br129	Br	1.087167	-0.917906	-0.238332
Br130	Br	1.587167	-0.417906	0.261668
Br131	Br	1.126974	-0.401578	-0.797548
Br132	Br	1.626974	0.098422	-0.297548
Br133	Br	0.829381	-0.918462	-0.314002
Br134	Br	1.329381	-0.418462	0.185998
Br135	Br	0.383848	-0.469921	-0.469627
Br136	Br	0.883848	0.030079	0.030373
H137	H	1.092022	-0.810865	-0.391507
H138	H	1.592022	-0.310865	0.108493
H139	H	0.720431	-0.271491	-0.271826
H140	H	1.220431	0.228509	0.228174
Br141	Br	0.572995	-0.469905	-0.469618
Br142	Br	1.072995	0.030095	0.030382
H143	H	0.236415	-0.444107	-0.443905
H144	H	0.736415	0.055893	0.056095
Br145	Br	0.573003	-0.245678	-0.246104
Br146	Br	1.073003	0.254322	0.253896
Br147	Br	0.938211	-0.796829	-0.194518
Br148	Br	1.438211	-0.296829	0.305482
H149	H	1.008574	-0.903725	-0.482959
H150	H	1.508574	-0.403725	0.017041
Br151	Br	0.869216	-0.477267	-0.797422
Br152	Br	1.369216	0.022733	-0.297422
Br153	Br	1.087303	-0.238118	-0.918795
Br154	Br	1.587303	0.261882	-0.418795
H155	H	0.236428	-0.271523	-0.271865
H156	H	0.736428	0.228477	0.228135
Br157	Br	0.869031	-0.796675	-0.477222
Br158	Br	1.369031	-0.296675	0.022778
Br159	Br	0.383851	-0.245682	-0.246119
Br160	Br	0.883851	0.254318	0.253881
Br161	Br	0.938355	-0.194481	-0.797323
Br162	Br	1.438355	0.305519	-0.297323
