data_functionalizedCrystal
_audit_creation_method	'MofGen! by Chris Wilmer'
_symmetry_space_group_name_H-M	'P1'
_symmetry_Int_Tables_number	1
_symmetry_cell_setting	triclinic
loop_
_symmetry_equiv_pos_as_xyz
  x,y,z
_cell_length_a	6.817900
_cell_length_b	11.102188
_cell_length_c	11.168136
_cell_angle_alpha	91.984111
_cell_angle_beta	108.508683
_cell_angle_gamma	108.603875
loop_
_atom_site_label
_atom_site_type_symbol
_atom_site_fract_x
_atom_site_fract_y
_atom_site_fract_z
V1	V	-4.110378	-0.175858	-0.393699
O2	O	-4.069443	0.008431	-0.386205
O3	O	-4.087154	-0.348678	-0.391007
O4	O	-4.086661	-0.173161	-0.565405
O5	O	-4.069939	-0.168300	-0.210599
V6	V	-4.587546	-0.153814	-0.371799
O7	O	-4.385578	-0.224213	-0.441739
O8	O	-4.762543	-0.105458	-0.323759
O9	O	-4.387564	0.019006	-0.374492
O10	O	-4.745878	-0.338103	-0.379294
O11	O	-4.745382	-0.161371	-0.554899
O12	O	-4.388056	-0.156510	-0.200093
C13	C	-3.937480	-0.390807	-0.384796
C14	C	-3.999943	-0.532090	-0.383739
C15	C	-3.969455	-0.580310	-0.267609
C16	C	-4.028169	-0.713061	-0.266621
C17	C	-4.147851	-0.749362	-0.497903
C18	C	-4.089152	-0.616614	-0.498890
C19	C	-4.154759	-0.876832	-0.130393
C20	C	-4.124235	-0.925054	-0.014256
C21	C	-3.934075	-0.861787	0.091571
C22	C	-3.774388	-0.750298	0.081267
C23	C	-3.804898	-0.702082	-0.034872
C24	C	-3.995102	-0.765348	-0.140696
C25	C	-3.962540	-0.452839	-0.635109
C26	C	-3.993035	-0.404620	-0.751249
C27	C	-4.183187	-0.467885	-0.857086
C28	C	-4.342852	-0.579380	-0.846793
C29	C	-4.312357	-0.627599	-0.730654
C30	C	-4.122204	-0.564324	-0.624817
C31	C	-3.936851	-0.166917	-0.607257
C32	C	-3.998909	-0.165856	-0.747627
C33	C	-4.201433	-0.171411	-0.816319
C34	C	-4.265578	-0.170314	-0.961399
C35	C	-4.200580	0.061129	-0.380699
C36	C	-4.117357	0.202410	-0.381764
C37	C	-4.201209	-0.162759	-0.158235
C38	C	-4.118387	-0.163813	-0.017863
H39	H	-4.497684	-0.630898	-0.932976
Cl40	Cl	-3.857321	-0.474056	-0.122849
Cl41	Cl	-4.395833	-0.180013	-0.741301
H42	H	-3.674879	-0.611313	-0.043263
H43	H	-4.439077	-0.175076	-1.020451
H44	H	-3.807694	-0.401314	-0.548931
Cl45	Cl	-3.850517	-0.156483	-0.926711
Cl46	Cl	-3.535302	-0.670780	0.214310
H47	H	-4.442374	-0.718387	-0.722281
Cl48	Cl	-3.804507	-0.157250	-0.822645
H49	H	-4.254269	-1.015831	-0.005875
Cl50	Cl	-3.895707	-0.922414	0.237569
Cl51	Cl	-4.393854	-0.956365	-0.263427
H52	H	-4.207992	-0.428620	-0.951655
Cl53	Cl	-3.792300	-0.264458	-0.764190
Cl54	Cl	-4.259987	-0.855628	-0.642656
