data_functionalizedCrystal
_audit_creation_method	'MofGen! by Chris Wilmer'
_symmetry_space_group_name_H-M	'P1'
_symmetry_Int_Tables_number	1
_symmetry_cell_setting	triclinic
loop_
_symmetry_equiv_pos_as_xyz
  x,y,z
_cell_length_a	19.188933
_cell_length_b	17.666332
_cell_length_c	10.654550
_cell_angle_alpha	89.994741
_cell_angle_beta	96.184764
_cell_angle_gamma	90.007939
loop_
_atom_site_label
_atom_site_type_symbol
_atom_site_fract_x
_atom_site_fract_y
_atom_site_fract_z
O1	O	0.927174	0.062921	-0.156794
O2	O	0.724001	0.062928	-0.177896
O3	O	0.830259	0.062922	0.015493
O4	O	0.820916	0.062928	-0.350183
O5	O	0.830240	-0.062975	0.015503
O6	O	0.723982	-0.062969	-0.177886
O7	O	0.927155	-0.062976	-0.156783
Cu8	Cu	0.825567	-0.074467	-0.167334
Cu9	Cu	0.825589	0.074420	-0.167346
O10	O	0.820897	-0.062969	-0.350173
C11	C	0.697976	-0.000019	-0.177207
C12	C	0.620458	-0.000017	-0.175155
N13	N	0.825556	-0.179187	-0.167325
C14	C	0.067117	0.068601	-0.160510
C15	C	0.139954	0.068604	-0.162431
C16	C	0.176367	-0.000022	-0.163392
C17	C	0.139940	-0.068656	-0.162400
C18	C	0.067105	-0.068657	-0.160466
N19	N	0.285867	-0.051102	-0.237884
N20	N	0.355056	-0.051097	-0.239723
C21	C	0.395814	-0.000023	-0.169216
N22	N	0.364767	0.051056	-0.096815
N23	N	0.295571	0.051053	-0.094981
C24	C	0.255344	-0.000029	-0.165488
C25	C	0.511211	0.068610	-0.172283
C26	C	0.584050	0.068610	-0.174196
C27	C	0.584033	-0.068652	-0.174177
C28	C	0.511197	-0.068650	-0.172251
C29	C	0.474790	-0.000017	-0.171310
C30	C	0.872623	-0.218799	-0.081733
C31	C	0.872627	-0.298047	-0.081727
C32	C	0.825571	-0.337679	-0.167334
C33	C	0.778496	-0.298057	-0.252932
C34	C	0.778488	-0.218811	-0.252927
N35	N	0.817222	-0.462096	-0.278501
N36	N	0.817233	-0.537376	-0.278501
C37	C	0.825590	-0.576443	-0.167352
N38	N	0.833948	-0.537386	-0.056198
N39	N	0.833941	-0.462098	-0.056198
C40	C	0.825574	-0.423608	-0.167348
C41	C	0.872663	-0.701985	-0.081747
C42	C	0.872662	-0.781234	-0.081739
C43	C	0.778535	-0.781242	-0.252954
C44	C	0.778532	-0.701995	-0.252951
C45	C	0.825600	-0.662371	-0.167349
C46	C	0.953180	-0.000026	-0.157472
C47	C	1.030698	-0.000024	-0.159525
C48	C	0.829564	-0.000026	0.062282
C49	C	0.827511	-0.000023	0.201682
N50	N	0.825605	0.179139	-0.167345
C51	C	0.821593	-0.000020	-0.396961
C52	C	0.823645	-0.000018	-0.536361
C53	C	0.890074	-0.000027	0.282490
C54	C	0.888141	-0.000022	0.413470
C55	C	0.761077	-0.000011	0.382820
C56	C	0.763011	-0.000011	0.251842
C57	C	0.954574	-0.000039	0.232329
C58	C	1.017143	-0.000045	0.313140
C59	C	1.015210	-0.000039	0.444120
C60	C	0.950709	-0.000029	0.494289
H61	H	0.037480	0.124488	-0.159739
H62	H	0.481568	0.124495	-0.171512
C63	C	0.726764	-0.658414	-0.347115
C64	C	0.675021	-0.702000	-0.441319
C65	C	0.623249	-0.658419	-0.535485
C66	C	0.623222	-0.571251	-0.535445
C67	C	0.674967	-0.527660	-0.441237
C68	C	0.726738	-0.571242	-0.347072
H69	H	0.675040	-0.766531	-0.441352
H70	H	0.584944	-0.690688	-0.605224
H71	H	0.584897	-0.538989	-0.605152
H72	H	0.674948	-0.463129	-0.441205
H73	H	0.765044	-0.538972	-0.277333
C74	C	0.694191	-0.000009	0.162946
C75	C	0.678037	-0.065381	0.068690
C76	C	0.609215	-0.065375	-0.020206
C77	C	0.556548	0.000002	-0.014847
C78	C	0.572701	0.065379	0.079412
C79	C	0.641522	0.065373	0.168308
H80	H	0.717026	-0.113782	0.064720
H81	H	0.597258	-0.113772	-0.089983
H82	H	0.505602	0.000006	-0.080653
H83	H	0.533712	0.113780	0.083382
H84	H	0.653479	0.113770	0.238085
C85	C	0.624112	0.144104	-0.175277
C86	C	0.621498	0.200729	-0.066010
C87	C	0.661560	0.276226	-0.067091
C88	C	0.704237	0.295097	-0.177440
C89	C	0.706853	0.238471	-0.286715
C90	C	0.666791	0.162974	-0.285634
H91	H	0.589905	0.186761	0.015684
H92	H	0.659623	0.318144	0.013802
H93	H	0.733893	0.350984	-0.178240
H94	H	0.738446	0.252439	-0.368409
H95	H	0.668728	0.121056	-0.366528
H96	H	0.169612	0.124489	-0.163241
C97	C	0.690131	-0.000006	0.438006
C98	C	0.671320	-0.065381	0.523841
C99	C	0.600372	-0.065378	0.579025
C100	C	0.548237	0.000001	0.548375
C101	C	0.567047	0.065381	0.462536
C102	C	0.637994	0.065378	0.407351
H103	H	0.709915	-0.113783	0.546534
H104	H	0.586448	-0.113777	0.642570
H105	H	0.495717	0.000003	0.589226
H106	H	0.528452	0.113783	0.439842
H107	H	0.651918	0.113777	0.343807
C108	C	0.624073	-0.144147	-0.175223
C109	C	0.666742	-0.163037	-0.285563
C110	C	0.706783	-0.238536	-0.286600
C111	C	0.704155	-0.295146	-0.177297
C112	C	0.661484	-0.276258	-0.066949
C113	C	0.621443	-0.200759	-0.065912
H114	H	0.668689	-0.121129	-0.366483
H115	H	0.738371	-0.252518	-0.368287
H116	H	0.733795	-0.351035	-0.178064
H117	H	0.659536	-0.318165	0.013971
H118	H	0.589855	-0.186777	0.015775
H119	H	0.037452	-0.124542	-0.159668
H120	H	0.956155	-0.000046	0.125681
H121	H	0.169592	-0.124532	-0.163180
H122	H	0.910956	-0.330306	-0.012026
C123	C	0.471131	-0.144141	-0.171184
C124	C	0.413655	-0.163018	-0.278873
C125	C	0.373591	-0.238513	-0.277802
C126	C	0.391002	-0.295132	-0.169042
C127	C	0.448481	-0.276257	-0.061344
C128	C	0.488546	-0.200762	-0.062415
H129	H	0.400763	-0.121104	-0.359392
H130	H	0.331041	-0.252485	-0.357527
H131	H	0.361344	-0.351018	-0.168249
H132	H	0.461373	-0.318171	0.019174
H133	H	0.531095	-0.186790	0.017310
C134	C	0.924430	-0.658394	0.012424
C135	C	0.976196	-0.701975	0.106590
C136	C	1.027963	-0.658387	0.200762
C137	C	1.027964	-0.571220	0.200769
C138	C	0.976196	-0.527634	0.106600
C139	C	0.924429	-0.571222	0.012428
H140	H	0.976197	-0.766506	0.106588
H141	H	1.066285	-0.690652	0.270472
H142	H	1.066284	-0.538954	0.270482
H143	H	0.976195	-0.463103	0.106602
H144	H	0.886107	-0.538957	-0.057282
C145	C	0.924389	-0.175211	0.012436
C146	C	0.978011	-0.120711	-0.036393
C147	C	1.029775	-0.077119	0.057778
C148	C	1.027918	-0.088028	0.200777
C149	C	0.974293	-0.142530	0.249613
C150	C	0.922529	-0.186122	0.155442
H151	H	0.979388	-0.112634	-0.142256
H152	H	1.069472	-0.036773	0.021626
H153	H	1.066237	-0.055758	0.270488
H154	H	0.972916	-0.150608	0.355476
H155	H	0.882833	-0.226469	0.191594
H156	H	0.740181	-0.330329	-0.322632
H157	H	0.740160	-0.186558	-0.322627
C158	C	1.088090	-0.000053	0.257958
C159	C	1.106881	-0.065433	0.172146
C160	C	1.177830	-0.065441	0.116967
C161	C	1.229988	-0.000068	0.147601
C162	C	1.211198	0.065318	0.233417
C163	C	1.140249	0.065325	0.288596
H164	H	1.068270	-0.113831	0.149465
H165	H	1.191740	-0.113843	0.053440
H166	H	1.282509	-0.000073	0.106754
H167	H	1.249809	0.113715	0.256098
H168	H	1.126340	0.113728	0.352123
H169	H	0.910988	-0.813487	-0.012034
H170	H	1.066156	-0.000036	0.509912
H171	H	0.740218	-0.813510	-0.322652
H172	H	0.949141	-0.000016	0.600943
