data_functionalizedCrystal
_audit_creation_method	'MofGen! by Chris Wilmer'
_symmetry_space_group_name_H-M	'P1'
_symmetry_Int_Tables_number	1
_symmetry_cell_setting	triclinic
loop_
_symmetry_equiv_pos_as_xyz
  x,y,z
_cell_length_a	14.519709
_cell_length_b	22.610064
_cell_length_c	14.519709
_cell_angle_alpha	89.996868
_cell_angle_beta	83.680145
_cell_angle_gamma	90.002631
loop_
_atom_site_label
_atom_site_type_symbol
_atom_site_fract_x
_atom_site_fract_y
_atom_site_fract_z
O1	O	1.223874	0.049109	0.120879
O2	O	1.557207	0.382442	0.454212
O3	O	1.890541	0.715775	0.787545
O4	O	0.955397	0.049127	0.135115
O5	O	1.288730	0.382460	0.468449
O6	O	1.622064	0.715794	0.801782
O7	O	1.096754	0.049112	-0.006241
O8	O	1.430087	0.382445	0.327092
O9	O	1.763420	0.715779	0.660425
O10	O	1.082517	0.049124	0.262235
O11	O	1.415850	0.382457	0.595569
O12	O	1.749184	0.715790	0.928902
O13	O	1.096729	-0.049257	-0.006221
O14	O	1.430062	0.284076	0.327112
O15	O	1.763395	0.617410	0.660446
O16	O	0.955372	-0.049242	0.135136
O17	O	1.288705	0.284091	0.468469
O18	O	1.622039	0.617425	0.801803
O19	O	1.223849	-0.049260	0.120899
O20	O	1.557182	0.284073	0.454233
O21	O	1.890516	0.617406	0.787566
Zn22	Zn	1.089606	-0.064869	0.128021
Zn23	Zn	1.422940	0.268464	0.461354
Zn24	Zn	1.756273	0.601797	0.794688
Zn25	Zn	1.089639	0.064736	0.127994
Zn26	Zn	1.422973	0.398070	0.461327
Zn27	Zn	1.756306	0.731403	0.794660
O28	O	1.082492	-0.049245	0.262256
O29	O	1.415825	0.284088	0.595589
O30	O	1.749159	0.617421	0.928923
C31	C	0.921025	-0.000055	0.134462
C32	C	1.254358	0.333278	0.467795
C33	C	1.587691	0.666611	0.801129
C34	C	0.818643	-0.000048	0.132474
C35	C	1.151977	0.333285	0.465807
C36	C	1.485310	0.666618	0.799141
N37	N	1.089591	-0.153322	0.128039
N38	N	1.422924	0.180011	0.461372
N39	N	1.756257	0.513345	0.794706
C40	C	0.443748	-0.000076	0.125154
C41	C	0.777081	0.333258	0.458488
C42	C	1.110414	0.666591	0.791821
C43	C	0.548056	-0.000068	0.127187
C44	C	0.881389	0.333265	0.460520
C45	C	1.214722	0.666599	0.793854
C46	C	0.631192	-0.000062	0.128814
C47	C	0.964526	0.333272	0.462147
C48	C	1.297859	0.666605	0.795481
C49	C	0.735507	-0.000055	0.130847
C50	C	1.068840	0.333278	0.464180
C51	C	1.402173	0.666612	0.797514
C52	C	1.152235	-0.561970	0.065411
C53	C	1.485568	-0.228637	0.398744
C54	C	1.818902	0.104697	0.732077
C55	C	1.152240	-0.623890	0.065404
C56	C	1.485573	-0.290557	0.398737
C57	C	1.818906	0.042777	0.732071
O58	O	1.205463	-0.655914	0.012169
O59	O	1.538796	-0.322581	0.345502
O60	O	1.872130	0.010752	0.678835
N61	N	1.089639	-0.654859	0.127975
N62	N	1.422972	-0.321526	0.461308
N63	N	1.756305	0.011808	0.794641
C64	C	1.027022	-0.623905	0.190550
C65	C	1.360356	-0.290572	0.523883
C66	C	1.693689	0.042761	0.857216
O67	O	0.973775	-0.655933	0.243770
O68	O	1.307109	-0.322599	0.577103
O69	O	1.640442	0.010734	0.910436
C70	C	1.027014	-0.561986	0.190551
C71	C	1.360347	-0.228653	0.523885
C72	C	1.693681	0.104680	0.857218
C73	C	1.089626	-0.531020	0.127983
C74	C	1.422959	-0.197687	0.461316
C75	C	1.756292	0.135646	0.794649
C76	C	1.214841	-0.531004	0.002846
C77	C	1.548174	-0.197671	0.336180
C78	C	1.881507	0.135663	0.669513
C79	C	1.214837	-0.469088	0.002855
C80	C	1.548170	-0.135755	0.336188
C81	C	1.881504	0.197578	0.669521
C82	C	1.152227	-0.438139	0.065427
C83	C	1.485561	-0.104805	0.398760
C84	C	1.818894	0.228528	0.732093
C85	C	1.089622	-0.469105	0.127991
C86	C	1.422955	-0.135771	0.461324
C87	C	1.756288	0.197562	0.794657
C88	C	0.964394	-0.531034	0.253121
C89	C	1.297728	-0.197700	0.586455
C90	C	1.631061	0.135633	0.919788
C91	C	0.964391	-0.469111	0.253117
C92	C	1.297724	-0.135777	0.586450
C93	C	1.631057	0.197556	0.919784
C94	C	1.027002	-0.438145	0.190548
C95	C	1.360336	-0.104811	0.523882
C96	C	1.693669	0.228522	0.857215
C97	C	1.027009	-0.376240	0.190571
C98	C	1.360342	-0.042906	0.523904
C99	C	1.693675	0.290427	0.857238
N100	N	1.089610	-0.345270	0.128000
N101	N	1.422943	-0.011937	0.461334
N102	N	1.756276	0.321396	0.794667
C103	C	1.152219	-0.376220	0.065428
C104	C	1.485552	-0.042887	0.398762
C105	C	1.818886	0.290447	0.732095
C106	C	1.027044	-0.753939	0.190541
C107	C	1.360377	-0.420605	0.523874
C108	C	1.693710	-0.087272	0.857207
C109	C	1.027056	-0.815856	0.190544
C110	C	1.360389	-0.482523	0.523878
C111	C	1.693722	-0.149190	0.857211
C112	C	1.152272	-0.815837	0.065397
C113	C	1.485605	-0.482503	0.398730
C114	C	1.818939	-0.149170	0.732064
C115	C	1.152264	-0.753918	0.065399
C116	C	1.485597	-0.420585	0.398732
C117	C	1.818930	-0.087251	0.732065
C118	C	1.089645	-0.722970	0.127970
C119	C	1.422978	-0.389636	0.461303
C120	C	1.756311	-0.056303	0.794637
C121	C	1.152207	-0.246193	0.065450
C122	C	1.485540	0.087141	0.398784
C123	C	1.818874	0.420474	0.732117
C124	C	1.152200	-0.184271	0.065467
C125	C	1.485533	0.149062	0.398800
C126	C	1.818867	0.482395	0.732133
C127	C	1.026981	-0.184296	0.190610
C128	C	1.360314	0.149037	0.523944
C129	C	1.693648	0.482370	0.857277
C130	C	1.026991	-0.246212	0.190598
C131	C	1.360324	0.087121	0.523931
C132	C	1.693657	0.420455	0.857264
C133	C	1.089607	-0.277159	0.128010
C134	C	1.422940	0.056175	0.461343
C135	C	1.756274	0.389508	0.794677
O136	O	0.973810	-0.344176	0.243777
O137	O	1.307143	-0.010843	0.577110
O138	O	1.640477	0.322491	0.910443
O139	O	1.205449	-0.344185	0.012209
O140	O	1.538783	-0.010852	0.345542
O141	O	1.872116	0.322482	0.678876
C142	C	1.258221	-0.000077	0.121553
C143	C	1.591554	0.333257	0.454886
C144	C	1.924888	0.666590	0.788219
C145	C	1.360602	-0.000080	0.123541
C146	C	1.693936	0.333254	0.456874
C147	C	2.027269	0.666587	0.790207
C148	C	1.096078	-0.000073	-0.040591
C149	C	1.429411	0.333261	0.292742
C150	C	1.762744	0.666594	0.626076
C151	C	1.094090	-0.000073	-0.142972
C152	C	1.427423	0.333261	0.190361
C153	C	1.760756	0.666594	0.523694
N154	N	1.089662	0.153189	0.127968
N155	N	1.422996	0.486522	0.461302
N156	N	1.756329	0.819855	0.794635
C157	C	1.086770	-0.000057	-0.517868
C158	C	1.420103	0.333276	-0.184535
C159	C	1.753437	0.666610	0.148799
C160	C	1.088803	-0.000061	-0.413560
C161	C	1.422136	0.333272	-0.080227
C162	C	1.755469	0.666605	0.253107
C163	C	1.090430	-0.000065	-0.330423
C164	C	1.423763	0.333268	0.002910
C165	C	1.757096	0.666601	0.336243
C166	C	1.092463	-0.000069	-0.226109
C167	C	1.425796	0.333265	0.107224
C168	C	1.759129	0.666598	0.440558
C169	C	1.083168	-0.000059	0.296606
C170	C	1.416501	0.333274	0.629939
C171	C	1.749835	0.666607	0.963272
C172	C	1.085156	-0.000055	0.398987
C173	C	1.418490	0.333278	0.732320
C174	C	1.751823	0.666611	1.065653
H175	H	1.203194	-0.271382	0.014485
H176	H	1.536527	0.061951	0.347818
H177	H	1.869861	0.395284	0.681152
N178	N	0.896849	-0.435736	0.320612
N179	N	1.230183	-0.102403	0.653946
N180	N	1.563516	0.230930	0.987279
H181	H	0.932146	-0.410047	0.361533
H182	H	1.265480	-0.076714	0.694866
H183	H	1.598813	0.256620	1.028199
H184	H	0.855974	-0.410080	0.285216
H185	H	1.189308	-0.076747	0.618549
H186	H	1.522641	0.256586	0.951883
H187	H	1.203251	-0.841047	0.014446
H188	H	1.536584	-0.507714	0.347779
H189	H	1.869918	-0.174381	0.681113
H190	H	0.976016	-0.271425	0.241556
H191	H	1.309349	0.061908	0.574889
H192	H	1.642682	0.395241	0.908222
H193	H	0.976008	-0.159088	0.241559
H194	H	1.309341	0.174246	0.574892
H195	H	1.642674	0.507579	0.908225
N196	N	1.282389	-0.564376	-0.064638
N197	N	1.615722	-0.231042	0.268695
N198	N	1.949056	0.102291	0.602028
H199	H	1.247110	-0.590070	-0.105568
H200	H	1.580444	-0.256737	0.227765
H201	H	1.913777	0.076597	0.561099
H202	H	1.322024	-0.535314	-0.104197
H203	H	1.655357	-0.201980	0.229136
H204	H	1.988691	0.131353	0.562470
H205	H	1.203247	-0.728709	0.014450
H206	H	1.536580	-0.395376	0.347783
H207	H	1.869913	-0.062042	0.681116
H208	H	0.976082	-0.841065	0.241503
H209	H	1.309415	-0.507731	0.574836
H210	H	1.642748	-0.174398	0.908170
N211	N	0.959504	-0.720560	0.258035
N212	N	1.292837	-0.387227	0.591369
N213	N	1.626170	-0.053894	0.924702
H214	H	0.919852	-0.749579	0.297669
H215	H	1.253186	-0.416246	0.631002
H216	H	1.586519	-0.082913	0.964335
H217	H	0.994865	-0.694869	0.298891
H218	H	1.328198	-0.361535	0.632224
H219	H	1.661532	-0.028202	0.965557
N220	N	0.896846	-0.564421	0.320593
N221	N	1.230180	-0.231088	0.653926
N222	N	1.563513	0.102246	0.987260
H223	H	0.907551	-0.553646	0.386077
H224	H	1.240885	-0.220313	0.719410
H225	H	1.574218	0.113020	1.052743
H226	H	0.831420	-0.553623	0.309719
H227	H	1.164753	-0.220290	0.643053
H228	H	1.498087	0.113044	0.976386
N229	N	1.219727	-0.150867	-0.002019
N230	N	1.553061	0.182466	0.331314
N231	N	1.886394	0.515800	0.664647
H232	H	1.285196	-0.161641	0.008744
H233	H	1.618529	0.171693	0.342077
H234	H	1.951862	0.505026	0.675411
H235	H	1.208920	-0.161651	-0.067469
H236	H	1.542254	0.171683	0.265864
H237	H	1.875587	0.505016	0.599197
N238	N	1.282364	-0.435693	-0.064634
N239	N	1.615697	-0.102360	0.268699
N240	N	1.949031	0.230973	0.602033
H241	H	1.322020	-0.464703	-0.104271
H242	H	1.655353	-0.131370	0.229062
H243	H	1.988687	0.201964	0.562396
H244	H	1.246992	-0.410005	-0.105486
H245	H	1.580326	-0.076672	0.227848
H246	H	1.913659	0.256662	0.561181
