data_functionalizedCrystal
_audit_creation_method	'MofGen! by Chris Wilmer'
_symmetry_space_group_name_H-M	'P1'
_symmetry_Int_Tables_number	1
_symmetry_cell_setting	triclinic
loop_
_symmetry_equiv_pos_as_xyz
  x,y,z
_cell_length_a	15.944564
_cell_length_b	18.266242
_cell_length_c	15.944551
_cell_angle_alpha	89.992703
_cell_angle_beta	83.501336
_cell_angle_gamma	89.995454
loop_
_atom_site_label
_atom_site_type_symbol
_atom_site_fract_x
_atom_site_fract_y
_atom_site_fract_z
O1	O	-1.114523	0.060806	-0.108384
O2	O	-0.869975	0.060825	-0.121729
O3	O	-0.998927	0.060808	0.007218
O4	O	-0.985571	0.060822	-0.237331
O5	O	-0.998905	-0.060954	0.007224
O6	O	-0.869953	-0.060937	-0.121723
O7	O	-1.114501	-0.060956	-0.108378
Zn8	Zn	-0.992223	-0.080279	-0.115049
Zn9	Zn	-0.992252	0.080148	-0.115058
O10	O	-0.985549	-0.060939	-0.237325
C11	C	-0.838670	-0.000054	-0.121170
C12	C	-0.745425	-0.000047	-0.119504
C13	C	-0.530569	-0.000066	-0.035589
C14	C	-0.469560	0.059971	-0.074552
C15	C	-0.574700	-0.000056	-0.116488
C16	C	-0.469561	-0.060077	-0.074565
C17	C	-0.409788	-0.000068	-0.113570
C18	C	-0.514919	0.060031	-0.155474
C19	C	-0.514926	-0.060071	-0.155475
C20	C	-0.453935	-0.000019	-0.194497
C21	C	-0.669701	-0.000049	-0.118167
C22	C	-0.314787	-0.000070	-0.111898
N23	N	-0.992210	-0.189766	-0.115043
C24	C	-1.049329	-0.228082	-0.057973
C25	C	-1.049334	-0.304727	-0.057969
C26	C	-0.992229	-0.343053	-0.115049
C27	C	-0.935099	-0.304727	-0.172123
C28	C	-0.935090	-0.228084	-0.172120
N29	N	-0.981541	-0.463380	-0.189372
N30	N	-0.981555	-0.536188	-0.189373
C31	C	-0.992252	-0.573975	-0.115061
N32	N	-1.002951	-0.536203	-0.040747
N33	N	-1.002941	-0.463389	-0.040747
C34	C	-0.992232	-0.426160	-0.115059
C35	C	-1.049380	-0.695398	-0.057983
C36	C	-1.049379	-0.772045	-0.057978
C37	C	-0.935148	-0.772044	-0.172139
C38	C	-0.935145	-0.695399	-0.172137
C39	C	-0.992265	-0.657081	-0.115060
C40	C	-0.145807	-0.000075	-0.108925
C41	C	-0.239057	-0.000077	-0.110558
C42	C	-0.998361	-0.000073	0.038515
C43	C	-0.996699	-0.000073	0.131761
N44	N	-0.992272	0.189635	-0.115058
C45	C	-0.986114	-0.000057	-0.268622
C46	C	-0.987777	-0.000052	-0.361868
C47	C	-0.912795	-0.000057	0.346622
C48	C	-0.951747	-0.060096	0.407640
C49	C	-0.993692	-0.000067	0.302487
C50	C	-0.951787	0.059952	0.407617
C51	C	-0.990781	-0.000058	0.467400
C52	C	-1.032666	-0.060156	0.362278
C53	C	-1.032695	0.059946	0.362248
C54	C	-1.071705	-0.000108	0.423249
C55	C	-0.995366	-0.000073	0.207485
C56	C	-0.989113	-0.000058	0.562401
H57	H	-0.449459	0.110724	-0.040338
H58	H	-0.563902	0.000004	0.031547
H59	H	-1.095888	-0.664199	-0.011504
H60	H	-0.888649	-0.803248	-0.218612
F61	F	-0.874294	-0.187303	-0.232864
F62	F	-0.410591	0.000028	-0.282338
F63	F	-1.159548	-0.000156	0.466588
F64	F	-1.077342	-0.126573	0.336154
H65	H	-0.535048	-0.110827	-0.189661
F66	F	-0.443296	-0.126419	-0.029820
H67	H	-1.066891	0.110702	0.342114
F68	F	-1.110131	-0.345512	0.002776
F69	F	-0.907058	0.126292	0.433876
F70	F	-0.541052	0.126447	-0.200168
F71	F	-1.110117	-0.187303	0.002776
H72	H	-0.888602	-0.335936	-0.218598
F73	F	-1.110171	-0.812825	0.002771
H74	H	-0.888637	-0.664200	-0.218612
H75	H	-0.845647	-0.000112	0.313317
H76	H	-0.917521	-0.110849	0.427753
