data_functionalizedCrystal
_audit_creation_method	'MofGen! by Chris Wilmer'
_symmetry_space_group_name_H-M	'P1'
_symmetry_Int_Tables_number	1
_symmetry_cell_setting	triclinic
loop_
_symmetry_equiv_pos_as_xyz
  x,y,z
_cell_length_a	15.995350
_cell_length_b	16.992695
_cell_length_c	15.455313
_cell_angle_alpha	92.853997
_cell_angle_beta	87.325057
_cell_angle_gamma	87.080298
loop_
_atom_site_label
_atom_site_type_symbol
_atom_site_fract_x
_atom_site_fract_y
_atom_site_fract_z
O1	O	1.121182	0.097646	-0.071990
O2	O	0.878243	0.110125	-0.072018
O3	O	0.998739	-0.010258	-0.072012
O4	O	1.000686	0.218028	-0.071996
O5	O	0.991847	-0.003402	0.072250
O6	O	0.871351	0.116981	0.072243
O7	O	1.114290	0.104501	0.072272
Cu8	Cu	0.992191	0.111367	0.085430
Cu9	Cu	1.000342	0.103259	-0.085176
O10	O	0.993794	0.224884	0.072265
C11	C	0.843568	0.113037	0.000109
C12	C	0.750515	0.111489	0.000097
C13	C	1.148965	0.101590	0.000143
C14	C	1.242019	0.103137	0.000149
C15	C	0.999746	0.250669	0.000137
C16	C	1.007222	0.337713	0.000143
C17	C	1.580140	0.108690	0.000114
C18	C	1.538427	0.194441	0.000446
C19	C	1.441648	0.192878	0.000130
C20	C	1.412394	0.105936	0.000132
C21	C	1.454561	0.059733	-0.082253
C22	C	1.551345	0.061883	-0.082331
C23	C	1.543780	0.067909	0.081721
C24	C	1.446784	0.067981	0.082819
C25	C	1.317592	0.104374	0.000139
C26	C	1.674942	0.110249	0.000101
C27	C	0.992788	-0.036043	0.000115
C28	C	0.985312	-0.123087	0.000103
N29	N	0.986464	0.117069	0.205425
C30	C	0.935087	0.387953	0.000134
C31	C	0.942117	0.469740	0.000124
C32	C	1.021282	0.501284	0.000129
C33	C	1.093423	0.451038	0.000135
C34	C	1.086392	0.369253	0.000139
C35	C	1.050422	0.744881	0.000113
C36	C	1.057447	0.826673	0.000112
C37	C	0.906140	0.845369	0.000099
C38	C	0.899116	0.763582	0.000108
C39	C	0.971257	0.713342	0.000109
N40	N	1.028470	0.584883	0.000122
N41	N	0.964069	0.629745	0.000111
N42	N	1.006075	0.097551	-0.205172
C43	C	1.037675	0.065945	0.250822
C44	C	1.033352	0.070264	0.341630
C45	C	0.977822	0.125712	0.387039
C46	C	0.926605	0.176838	0.341635
C47	C	0.930925	0.172515	0.250829
C48	C	0.959178	0.144354	0.658619
C49	C	0.954864	0.148675	0.749431
C50	C	1.061611	0.042100	0.749419
C51	C	1.065928	0.037784	0.658612
C52	C	1.014709	0.088908	0.613216
N53	N	0.973404	0.130130	0.479859
N54	N	1.019123	0.084485	0.520398
H55	H	1.412641	0.228929	0.059184
Br56	Br	1.184294	0.301068	0.000142
H57	H	1.103310	0.000477	0.786388
H58	H	0.870621	0.362277	0.000140
H59	H	1.075052	0.028635	0.378591
H60	H	1.109164	0.703986	0.000119
H61	H	1.556442	0.231516	0.059520
H62	H	0.883377	0.510642	0.000114
Br63	Br	0.879499	0.223936	0.811053
H64	H	1.563227	0.098906	0.144159
H65	H	1.418651	0.101756	0.143767
H66	H	1.111146	-0.007366	0.621641
Br67	Br	1.200864	0.493847	0.000132
H68	H	1.431036	0.086171	-0.143555
H69	H	1.121916	0.852353	0.000116
H70	H	0.917474	0.185982	0.621665
Br71	Br	1.579542	0.246652	-0.097469
Br72	Br	1.113048	-0.009304	0.189205
Br73	Br	1.589633	-0.037399	0.082649
Br74	Br	1.403619	0.243964	-0.098460
H75	H	0.889222	0.214144	0.213868
H76	H	1.574639	0.089795	-0.143912
Br77	Br	1.598376	-0.043322	-0.088582
Br78	Br	1.424141	-0.046974	-0.087363
Br79	Br	1.413711	-0.037300	0.091119
H80	H	0.834652	0.737904	0.000094
H81	H	0.881387	0.221983	0.378613
Br82	Br	0.808241	0.913554	0.000093
