data_functionalizedCrystal
_audit_creation_method	'MofGen! by Chris Wilmer'
_symmetry_space_group_name_H-M	'P1'
_symmetry_Int_Tables_number	1
_symmetry_cell_setting	triclinic
loop_
_symmetry_equiv_pos_as_xyz
  x,y,z
_cell_length_a	16.109302
_cell_length_b	18.366186
_cell_length_c	19.288865
_cell_angle_alpha	89.988521
_cell_angle_beta	83.299014
_cell_angle_gamma	89.989012
loop_
_atom_site_label
_atom_site_type_symbol
_atom_site_fract_x
_atom_site_fract_y
_atom_site_fract_z
O1	O	1.102831	-0.060591	0.089284
O2	O	1.436165	0.272742	0.422617
O3	O	1.769498	0.606076	0.755951
O4	O	0.860732	-0.060586	0.100394
O5	O	1.194065	0.272747	0.433728
O6	O	1.527398	0.606080	0.767061
O7	O	0.988777	-0.060574	-0.006274
O8	O	1.322110	0.272759	0.327059
O9	O	1.655444	0.606092	0.660392
O10	O	0.974786	-0.060603	0.195953
O11	O	1.308119	0.272731	0.529286
O12	O	1.641453	0.606064	0.862619
O13	O	0.988755	0.060525	-0.006280
O14	O	1.322089	0.393858	0.327054
O15	O	1.655422	0.727192	0.660387
O16	O	0.860710	0.060513	0.100389
O17	O	1.194043	0.393847	0.433722
O18	O	1.527377	0.727180	0.767056
O19	O	1.102810	0.060509	0.089279
O20	O	1.436143	0.393842	0.422612
O21	O	1.769476	0.727175	0.755945
Zn22	Zn	0.981756	0.079738	0.094833
Zn23	Zn	1.315090	0.413071	0.428166
Zn24	Zn	1.648423	0.746405	0.761500
Zn25	Zn	0.981785	-0.079816	0.094840
Zn26	Zn	1.315118	0.253518	0.428173
Zn27	Zn	1.648452	0.586851	0.761507
O28	O	0.974764	0.060497	0.195947
O29	O	1.308098	0.393830	0.529281
O30	O	1.641431	0.727163	0.862614
C31	C	0.829747	-0.000036	0.099941
C32	C	1.163081	0.333298	0.433275
C33	C	1.496414	0.666631	0.766608
C34	C	0.737457	-0.000033	0.098592
C35	C	1.070790	0.333300	0.431925
C36	C	1.404123	0.666633	0.765259
C37	C	0.525115	0.065971	0.095469
C38	C	0.858448	0.399305	0.428802
C39	C	1.191781	0.732638	0.762135
C40	C	0.438399	0.065969	0.094193
C41	C	0.771732	0.399302	0.427526
C42	C	1.105066	0.732636	0.760860
C43	C	0.438433	-0.066060	0.094202
C44	C	0.771766	0.267273	0.427536
C45	C	1.105100	0.600606	0.760869
C46	C	0.525148	-0.066057	0.095473
C47	C	0.858481	0.267276	0.428806
C48	C	1.191815	0.600609	0.762140
C49	C	0.568486	-0.000039	0.096109
C50	C	0.901819	0.333294	0.429443
C51	C	1.235153	0.666627	0.762776
C52	C	0.395055	-0.000045	0.093564
C53	C	0.728389	0.333289	0.426897
C54	C	1.061722	0.666622	0.760230
C55	C	0.301034	-0.000048	0.092181
C56	C	0.634368	0.333286	0.425514
C57	C	0.967701	0.666619	0.758847
C58	C	0.662513	-0.000036	0.097491
C59	C	0.995846	0.333297	0.430825
C60	C	1.329180	0.666631	0.764158
C61	C	0.988316	-0.000022	-0.032155
C62	C	1.321649	0.333311	0.301179
C63	C	1.654983	0.666644	0.634512
C64	C	0.986965	-0.000016	-0.109261
C65	C	1.320298	0.333317	0.224072
C66	C	1.653631	0.666651	0.557405
C67	C	1.133794	-0.000044	0.089732
C68	C	1.467127	0.333290	0.423065
C69	C	1.800461	0.666623	0.756398
C70	C	1.226085	-0.000051	0.091081
C71	C	1.559418	0.333283	0.424414
C72	C	1.892751	0.666616	0.757748
N73	N	0.981743	0.188629	0.094828
N74	N	1.315076	0.521962	0.428161
N75	N	1.648410	0.855296	0.761495
N76	N	0.981805	-0.188707	0.094840
N77	N	1.315138	0.144627	0.428173
N78	N	1.648472	0.477960	0.761506
C79	C	1.038460	0.226735	0.047618
C80	C	1.371793	0.560068	0.380952
C81	C	1.705127	0.893401	0.714285
C82	C	1.038465	0.302963	0.047615
C83	C	1.371799	0.636296	0.380948
C84	C	1.705132	0.969629	0.714282
C85	C	0.981761	0.341082	0.094834
C86	C	1.315095	0.674415	0.428167
C87	C	1.648428	1.007749	0.761500
C88	C	0.925034	0.302967	0.142047
C89	C	1.258367	0.636300	0.475380
C90	C	1.591700	0.969634	0.808714
C91	C	0.925025	0.226741	0.142044
C92	C	1.258358	0.560074	0.475377
C93	C	1.591691	0.893407	0.808711
C94	C	0.970632	0.461833	0.158095
C95	C	1.303965	0.795167	0.491428
C96	C	1.637298	1.128500	0.824762
C97	C	0.970647	0.538058	0.158099
C98	C	1.303980	0.871392	0.491432
C99	C	1.637313	1.204725	0.824765
C100	C	0.981785	0.576189	0.094842
C101	C	1.315118	0.909523	0.428176
C102	C	1.648452	1.242856	0.761509
C103	C	0.992926	0.538086	0.031580
C104	C	1.326259	0.871419	0.364913
C105	C	1.659593	1.204753	0.698246
C106	C	0.992917	0.461860	0.031577
C107	C	1.326250	0.795193	0.364910
C108	C	1.659583	1.128526	0.698243
C109	C	0.981765	0.423737	0.094842
C110	C	1.315098	0.757070	0.428175
C111	C	1.648431	1.090403	0.761508
C112	C	1.038511	0.696950	0.047625
C113	C	1.371844	1.030283	0.380959
C114	C	1.705177	1.363617	0.714292
C115	C	1.038510	0.773179	0.047621
C116	C	1.371844	1.106513	0.380955
C117	C	1.705177	1.439846	0.714288
C118	C	0.925083	0.773182	0.142059
C119	C	1.258416	1.106515	0.475393
C120	C	1.591749	1.439849	0.808726
C121	C	0.925079	0.696954	0.142057
C122	C	1.258413	1.030288	0.475391
C123	C	1.591746	1.363621	0.808724
C124	C	0.981798	0.658843	0.094841
C125	C	1.315131	0.992176	0.428174
C126	C	1.648464	1.325510	0.761508
C127	C	1.062096	-0.000014	-0.153778
C128	C	1.395429	0.333320	0.179555
C129	C	1.728763	0.666653	0.512888
C130	C	1.060826	-0.000025	-0.226228
C131	C	1.394160	0.333308	0.107105
C132	C	1.727493	0.666641	0.440438
C133	C	0.984421	-0.000024	-0.254158
C134	C	1.317754	0.333309	0.079175
C135	C	1.651088	0.666642	0.412508
C136	C	0.909280	-0.000031	-0.209632
C137	C	1.242613	0.333303	0.123701
C138	C	1.575947	0.666636	0.457035
C139	C	0.910552	-0.000026	-0.137183
C140	C	1.243885	0.333307	0.196150
C141	C	1.577218	0.666640	0.529483
C142	C	0.924350	0.042395	-0.362591
C143	C	1.257683	0.375729	-0.029258
C144	C	1.591017	0.709062	0.304075
C145	C	0.923082	0.042396	-0.435039
C146	C	1.256415	0.375729	-0.101705
C147	C	1.589748	0.709062	0.231628
C148	C	0.980495	-0.000041	-0.477613
C149	C	1.313829	0.333293	-0.144280
C150	C	1.647162	0.666626	0.189053
C151	C	1.039192	-0.042468	-0.447733
C152	C	1.372526	0.290866	-0.114400
C153	C	1.705859	0.624199	0.218933
C154	C	1.040464	-0.042463	-0.375285
C155	C	1.373797	0.290870	-0.041951
C156	C	1.707131	0.624203	0.291382
C157	C	0.983034	-0.000029	-0.332716
C158	C	1.316367	0.333304	0.000618
C159	C	1.649700	0.666637	0.333951
C160	C	1.054255	-0.000052	-0.600689
C161	C	1.387589	0.333281	-0.267356
C162	C	1.720922	0.666615	0.065977
C163	C	1.052983	-0.000068	-0.673141
C164	C	1.386316	0.333265	-0.339807
C165	C	1.719649	0.666599	-0.006474
C166	C	0.901434	-0.000066	-0.656542
C167	C	1.234767	0.333268	-0.323209
C168	C	1.568101	0.666601	0.010124
C169	C	0.902709	-0.000057	-0.584093
C170	C	1.236042	0.333276	-0.250760
C171	C	1.569376	0.666610	0.082574
C172	C	0.979122	-0.000047	-0.556171
C173	C	1.312455	0.333287	-0.222838
C174	C	1.645789	0.666620	0.110496
C175	C	0.975225	-0.000057	0.221828
C176	C	1.308559	0.333276	0.555161
C177	C	1.641892	0.666610	0.888494
C178	C	0.976577	-0.000068	0.298934
C179	C	1.309910	0.333265	0.632268
C180	C	1.643243	0.666599	0.965601
H181	H	0.403137	-0.119810	0.093685
H182	H	0.736470	0.213524	0.427018
H183	H	1.069803	0.546857	0.760352
H184	H	1.001986	0.430839	-0.019934
H185	H	1.335319	0.764172	0.313399
H186	H	1.668652	1.097506	0.646733
F187	F	0.571236	0.136233	0.096143
F188	F	0.904569	0.469567	0.429477
F189	F	1.237902	0.802900	0.762810
F190	F	0.571310	-0.136318	0.096151
F191	F	0.904644	0.197015	0.429484
F192	F	1.237977	0.530348	0.762817
H193	H	1.084652	0.333994	0.009170
H194	H	1.417986	0.667327	0.342503
H195	H	1.751319	1.000661	0.675836
F196	F	0.392244	0.136226	0.093512
F197	F	0.725577	0.469560	0.426845
F198	F	1.058910	0.802893	0.760178
H199	H	1.001995	0.569131	-0.019930
H200	H	1.335329	0.902464	0.313403
H201	H	1.668662	1.235797	0.646737
F202	F	0.822743	-0.000056	-0.536713
F203	F	1.156076	0.333277	-0.203379
F204	F	1.489410	0.666610	0.129954
F205	F	0.864717	0.656396	0.192307
F206	F	1.198050	0.989730	0.525641
F207	F	1.531384	1.323063	0.858974
F208	F	1.098872	0.656388	-0.002629
F209	F	1.432205	0.989721	0.330705
F210	F	1.765539	1.323055	0.664038
H211	H	1.084641	0.195707	0.009170
H212	H	1.417975	0.529040	0.342504
H213	H	1.751308	0.862373	0.675837
H214	H	0.877595	0.076956	-0.327932
H215	H	1.210928	0.410289	0.005401
H216	H	1.544261	0.743623	0.338735
H217	H	1.084694	0.804205	0.009174
H218	H	1.418027	1.137539	0.342507
H219	H	1.751360	1.470872	0.675841
F220	F	1.140794	-0.000024	-0.273615
F221	F	1.474128	0.333309	0.059718
F222	F	1.807461	0.666642	0.393052
F223	F	0.958837	0.421259	0.225427
F224	F	1.292170	0.754592	0.558760
F225	F	1.625503	1.087926	0.892094
H226	H	0.878910	0.804218	0.180503
H227	H	1.212244	1.137552	0.513836
H228	H	1.545577	1.470885	0.847169
H229	H	0.839223	-0.000069	-0.679282
H230	H	1.172557	0.333265	-0.345949
H231	H	1.505890	0.666598	-0.012616
F232	F	0.958795	0.578604	0.225428
F233	F	1.292129	0.911937	0.558761
F234	F	1.625462	1.245270	0.892094
F235	F	0.864656	0.186184	0.192293
F236	F	1.197990	0.519517	0.525627
F237	F	1.531323	0.852851	0.858960
F238	F	1.135579	-0.000037	-0.570970
F239	F	1.468913	0.333296	-0.237637
F240	F	1.802246	0.666629	0.095696
H241	H	0.878863	0.334007	0.180492
H242	H	1.212197	0.667341	0.513825
H243	H	1.545530	1.000674	0.847159
H244	H	1.124317	-0.000008	-0.131049
H245	H	1.457651	0.333325	0.202284
H246	H	1.790984	0.666659	0.535617
H247	H	1.088255	-0.077010	-0.350959
H248	H	1.421588	0.256323	-0.017626
H249	H	1.754922	0.589656	0.315707
H250	H	1.085944	-0.077024	-0.482396
H251	H	1.419277	0.256310	-0.149063
H252	H	1.752611	0.589643	0.184270
H253	H	1.114166	-0.000070	-0.709386
H254	H	1.447499	0.333263	-0.376053
H255	H	1.780833	0.666596	-0.042719
H256	H	0.875284	0.076938	-0.459361
H257	H	1.208617	0.410271	-0.126027
H258	H	1.541950	0.743605	0.207306
H259	H	0.847070	-0.000031	-0.232377
H260	H	1.180404	0.333302	0.100956
H261	H	1.513737	0.666635	0.434290
F262	F	0.830583	-0.000029	-0.089803
F263	F	1.163916	0.333304	0.243530
F264	F	1.497250	0.666638	0.576863
