data_functionalizedCrystal
_audit_creation_method	'MofGen! by Chris Wilmer'
_symmetry_space_group_name_H-M	'P1'
_symmetry_Int_Tables_number	1
_symmetry_cell_setting	triclinic
loop_
_symmetry_equiv_pos_as_xyz
  x,y,z
_cell_length_a	12.759401
_cell_length_b	17.639999
_cell_length_c	12.759393
_cell_angle_alpha	101.232446
_cell_angle_beta	89.979527
_cell_angle_gamma	101.192479
loop_
_atom_site_label
_atom_site_type_symbol
_atom_site_fract_x
_atom_site_fract_y
_atom_site_fract_z
Zn1	Zn	1.690772	0.314593	-0.509557
Zn2	Zn	1.726176	0.446788	-0.298385
Zn3	Zn	1.515084	0.314637	-0.333881
Zn4	Zn	1.550559	0.446732	-0.474038
O5	O	1.620648	0.380688	-0.403965
O6	O	1.842491	0.332135	-0.481555
O7	O	1.698145	0.429300	-0.156062
O8	O	1.508726	0.204025	-0.386905
O9	O	1.868502	0.429258	-0.326408
O10	O	1.637803	0.203993	-0.515973
O11	O	1.543056	0.332209	-0.182140
O12	O	1.372767	0.332154	-0.352463
O13	O	1.569188	0.429162	-0.625782
O14	O	1.398831	0.429204	-0.455436
O15	O	1.672202	0.332080	-0.651878
O16	O	1.732544	0.557387	-0.291966
O17	O	1.603519	0.557345	-0.421017
C18	C	1.347678	0.380678	-0.403947
C19	C	1.230905	0.380693	-0.403959
C20	C	1.189663	0.431303	-0.457450
C21	C	1.079940	0.431306	-0.457471
C22	C	1.052710	0.330086	-0.350499
C23	C	1.162430	0.330080	-0.350486
C24	C	0.937661	0.459667	-0.573717
C25	C	0.896418	0.510290	-0.627196
C26	C	0.952737	0.587425	-0.622434
C27	C	1.050301	0.613953	-0.564174
C28	C	1.091539	0.563335	-0.510686
C29	C	1.035219	0.486188	-0.515471
C30	C	1.304713	0.301728	-0.234236
C31	C	1.345954	0.251112	-0.180741
C32	C	1.289637	0.173975	-0.185493
C33	C	1.192071	0.147450	-0.243734
C34	C	1.150829	0.198065	-0.297228
C35	C	1.207154	0.275201	-0.292479
C36	C	1.675751	0.586045	-0.348808
C37	C	1.699421	0.673898	-0.325247
C38	C	1.441099	0.962864	-0.583316
C39	C	1.463342	1.045416	-0.561143
C40	C	1.597780	1.045393	-0.426898
C41	C	1.575551	0.962841	-0.449064
C42	C	1.497209	0.921583	-0.527273
C43	C	1.631661	0.921559	-0.393020
C44	C	1.609430	0.839013	-0.415180
C45	C	1.531090	0.797749	-0.493383
C46	C	1.474978	0.839037	-0.549433
C47	C	1.709998	0.962818	-0.314806
C48	C	1.766108	0.921536	-0.258763
C49	C	1.743883	0.838989	-0.280927
C50	C	1.665542	0.797725	-0.359131
C51	C	1.799994	0.797702	-0.224878
C52	C	1.777763	0.715156	-0.247038
C53	C	1.643311	0.715180	-0.381291
C54	C	1.894684	0.380698	-0.403984
C55	C	2.011462	0.380702	-0.403992
C56	C	1.565325	1.174528	-0.459356
C57	C	1.541665	1.086675	-0.482948
C58	C	1.620703	0.380610	-0.678020
C59	C	1.620727	0.380577	-0.794805
C60	C	1.674383	0.329988	-0.972999
C61	C	1.674371	0.330019	-0.863266
C62	C	1.567101	0.431112	-0.836080
C63	C	1.567120	0.431085	-0.945809
C64	C	1.790679	0.301822	-0.720909
C65	C	1.844291	0.251279	-0.679640
C66	C	1.839745	0.174148	-0.735983
C67	C	1.781568	0.147544	-0.833597
C68	C	1.727947	0.198082	-0.874862
C69	C	1.732515	0.275224	-0.818517
C70	C	1.450808	0.459274	-1.088171
C71	C	1.397180	0.509809	-1.129438
C72	C	1.401715	0.586942	-1.073097
C73	C	1.459873	0.613543	-0.975480
C74	C	1.513501	0.563008	-0.934213
C75	C	1.508968	0.485876	-0.990561
C76	C	1.620638	0.380708	-0.130992
C77	C	1.620758	0.380519	-0.014267
H78	H	1.071388	0.176460	-0.344661
H79	H	1.777859	0.084732	-0.879460
Cl80	Cl	1.275741	0.494928	-0.524679
Cl81	Cl	1.214181	0.596677	-0.437448
H82	H	1.349788	0.488134	-1.208904
H83	H	1.829891	0.955140	-0.195082
Cl84	Cl	1.341478	0.110349	-0.118224
H85	H	0.996946	0.288880	-0.306961
H86	H	1.883398	0.132995	-0.702374
H87	H	1.891661	0.272947	-0.600160
Cl88	Cl	1.121089	0.710934	-0.558174
Cl89	Cl	1.586589	0.596443	-0.811476
H90	H	1.377313	0.929271	-0.647010
H91	H	0.919150	0.628642	-0.665979
Cl92	Cl	1.121261	0.050478	-0.249700
H93	H	0.816980	0.488683	-0.674634
Cl94	Cl	1.848292	0.663255	-0.176573
Cl95	Cl	1.375434	0.398745	-0.228115
Cl96	Cl	1.468602	0.284464	-0.107506
Cl97	Cl	1.741811	0.266418	-1.059056
Cl98	Cl	1.544832	0.663306	-0.479623
Cl99	Cl	0.866862	0.362687	-0.579727
H100	H	1.794398	0.364631	-0.675030
H101	H	1.512983	0.730535	-0.511417
Cl102	Cl	1.376499	0.787163	-0.647765
Cl103	Cl	1.392783	1.097310	-0.631596
Cl104	Cl	1.696266	1.097268	-0.328585
Cl105	Cl	1.445108	0.362305	-1.159011
H106	H	1.728098	1.030032	-0.296769
H107	H	1.863772	0.831306	-0.161193
H108	H	1.680566	0.176418	-0.954329
Cl109	Cl	1.499664	0.494673	-0.750014
H110	H	1.463569	0.676352	-0.929605
H111	H	1.358076	0.628096	-1.106727
