data_functionalizedCrystal
_audit_creation_method	'MofGen! by Chris Wilmer'
_symmetry_space_group_name_H-M	'P1'
_symmetry_Int_Tables_number	1
_symmetry_cell_setting	triclinic
loop_
_symmetry_equiv_pos_as_xyz
  x,y,z
_cell_length_a	19.805407
_cell_length_b	19.805405
_cell_length_c	12.759393
_cell_angle_alpha	89.962372
_cell_angle_beta	89.979138
_cell_angle_gamma	90.023727
loop_
_atom_site_label
_atom_site_type_symbol
_atom_site_fract_x
_atom_site_fract_y
_atom_site_fract_z
Zn1	Zn	1.034756	-0.269472	-0.594003
Zn2	Zn	1.534756	0.230528	-0.094003
Zn3	Zn	1.034665	-0.382677	-0.418305
Zn4	Zn	1.534665	0.117323	0.081695
Zn5	Zn	0.921565	-0.269502	-0.418335
Zn6	Zn	1.421565	0.230498	0.081665
Zn7	Zn	0.921534	-0.382619	-0.593939
Zn8	Zn	1.421534	0.117381	-0.093939
O9	O	0.978130	-0.326067	-0.506146
O10	O	1.478130	0.173933	-0.006146
O11	O	1.129461	-0.284500	-0.570711
O12	O	1.629461	0.215500	-0.070711
O13	O	1.019636	-0.367700	-0.271288
O14	O	1.519636	0.132300	0.228712
O15	O	0.936631	-0.174781	-0.441678
O16	O	1.436631	0.325219	0.058322
O17	O	1.129394	-0.367671	-0.441626
O18	O	1.629394	0.132329	0.058374
O19	O	1.019792	-0.174759	-0.570740
O20	O	1.519792	0.325241	-0.070740
O21	O	0.936542	-0.284551	-0.271310
O22	O	1.436542	0.215449	0.228690
O23	O	0.826844	-0.284495	-0.441616
O24	O	1.326844	0.215505	0.058384
O25	O	0.936579	-0.367573	-0.740969
O26	O	1.436579	0.132427	-0.240969
O27	O	0.826822	-0.367602	-0.570631
O28	O	1.326822	0.132398	-0.070631
O29	O	1.019762	-0.284444	-0.741016
O30	O	1.519762	0.215556	-0.241016
O31	O	1.019607	-0.477385	-0.441563
O32	O	1.519607	0.022615	0.058437
O33	O	0.936490	-0.477343	-0.570601
O34	O	1.436490	0.022657	-0.070601
C35	C	0.802274	-0.326046	-0.506120
C36	C	1.302274	0.173954	-0.006120
C37	C	0.727042	-0.326053	-0.506134
C38	C	1.227042	0.173947	-0.006134
C39	C	0.691733	-0.282823	-0.573451
C40	C	1.191733	0.217177	-0.073451
C41	C	0.621045	-0.282826	-0.573455
C42	C	1.121045	0.217174	-0.073455
C43	C	0.585666	-0.326064	-0.506147
C44	C	1.085666	0.173936	-0.006147
C45	C	0.620980	-0.369297	-0.438823
C46	C	1.120980	0.130703	0.061177
C47	C	0.691667	-0.369289	-0.438814
C48	C	1.191667	0.130711	0.061186
C49	C	0.335907	-0.369327	-0.438855
C50	C	0.835907	0.130673	0.061145
C51	C	0.265215	-0.369333	-0.438871
C52	C	0.765215	0.130667	0.061129
C53	C	0.265284	-0.282864	-0.573496
C54	C	0.765284	0.217136	-0.073496
C55	C	0.335972	-0.282857	-0.573487
C56	C	0.835972	0.217143	-0.073487
C57	C	0.371279	-0.326086	-0.506160
C58	C	0.871279	0.173914	-0.006160
C59	C	0.447927	-0.326081	-0.506155
C60	C	0.947927	0.173919	-0.006155
C61	C	0.509019	-0.326073	-0.506156
C62	C	1.009019	0.173927	-0.006156
C63	C	0.978054	-0.501923	-0.506095
C64	C	1.478054	-0.001923	-0.006095
C65	C	0.978083	-0.577155	-0.506108
C66	C	1.478083	-0.077155	-0.006108
C67	C	1.021404	-0.612499	-0.438989
C68	C	1.521404	-0.112499	0.061011
C69	C	1.021433	-0.683187	-0.439012
C70	C	1.521433	-0.183187	0.060988
C71	C	0.978137	-0.718531	-0.506150
C72	C	1.478137	-0.218531	-0.006150
C73	C	0.934814	-0.683182	-0.573277
C74	C	1.434814	-0.183182	-0.073277
C75	C	0.934789	-0.612495	-0.573258
C76	C	1.434789	-0.112495	-0.073258
C77	C	0.934914	-0.968255	-0.573355
C78	C	1.434914	-0.468255	-0.073355
C79	C	0.934941	-1.038947	-0.573366
C80	C	1.434941	-0.538947	-0.073366
C81	C	1.021557	-1.038948	-0.439108
C82	C	1.521557	-0.538948	0.060892
C83	C	1.021533	-0.968261	-0.439090
C84	C	1.521533	-0.468261	0.060910
C85	C	0.978213	-0.932918	-0.506220
C86	C	1.478213	-0.432918	-0.006220
C87	C	0.978183	-0.856270	-0.506196
C88	C	1.478183	-0.356270	-0.006196
C89	C	0.978163	-0.795178	-0.506170
C90	C	1.478163	-0.295178	-0.006170
C91	C	1.154673	-0.326089	-0.506172
C92	C	1.654673	0.173911	-0.006172
C93	C	1.229905	-0.326098	-0.506183
C94	C	1.729905	0.173902	-0.006183
C95	C	0.978177	-0.325999	-0.780179
C96	C	1.478177	0.174001	-0.280179
C97	C	0.978198	-0.325970	-0.896956
C98	C	1.478198	0.174030	-0.396956
C99	C	0.978225	-0.149524	-0.506220
C100	C	1.478225	0.350476	-0.006220
C101	C	0.978265	-0.074292	-0.506251
C102	C	1.478265	0.425708	-0.006251
C103	C	1.021517	-0.282681	-0.951844
C104	C	1.521517	0.217319	-0.451844
C105	C	1.021533	-0.282656	-1.061568
C106	C	1.521533	0.217344	-0.561568
C107	C	0.934908	-0.369216	-1.061506
C108	C	1.434908	0.130784	-0.561506
C109	C	0.934889	-0.369236	-0.951784
C110	C	1.434889	0.130764	-0.451784
C111	C	1.071532	-0.232708	-0.951881
C112	C	1.571532	0.267292	-0.451881
C113	C	1.071548	-0.232683	-1.061605
C114	C	1.571548	0.267317	-0.561605
C115	C	0.978122	-0.326086	-0.233178
C116	C	1.478122	0.173914	0.266822
C117	C	0.978233	-0.325925	-0.116402
C118	C	1.478233	0.174075	0.383598
H119	H	0.592300	-0.247625	-0.628273
H120	H	1.092300	0.252375	-0.128273
N121	N	1.068236	-0.930143	-0.366684
N122	N	1.568236	-0.430143	0.133316
H123	H	1.061647	-0.879999	-0.376858
H124	H	1.561647	-0.379999	0.123142
H125	H	1.057736	-0.942544	-0.291636
H126	H	1.557736	-0.442544	0.208364
H127	H	1.121309	-0.251502	-0.917845
H128	H	1.621309	0.248498	-0.417845
N129	N	1.140975	-0.251287	-1.101075
N130	N	1.640975	0.248713	-0.601075
H131	H	1.175012	-0.217318	-1.074736
H132	H	1.675012	0.282682	-0.574736
H133	H	1.153355	-0.297748	-1.074691
H134	H	1.653355	0.202252	-0.574691
H135	H	1.056658	-0.583727	-0.384312
H136	H	1.556658	-0.083727	0.115688
N137	N	0.729889	-0.236191	-0.646055
N138	N	1.229889	0.263809	-0.146055
H139	H	0.696792	-0.208805	-0.688699
H140	H	1.196792	0.291195	-0.188699
H141	H	0.759216	-0.204833	-0.603376
H142	H	1.259216	0.295167	-0.103376
H143	H	0.899514	-0.583719	-0.627915
H144	H	1.399514	-0.083719	-0.127915
H145	H	0.899612	-0.404484	-0.907098
H146	H	1.399612	0.095516	-0.407098
N147	N	0.227056	-0.415961	-0.366255
N148	N	0.727056	0.084039	0.133745
H149	H	0.176919	-0.409406	-0.376481
H150	H	0.676919	0.090594	0.123519
H151	H	0.239400	-0.464315	-0.382454
H152	H	0.739400	0.035685	0.117546
N153	N	1.052963	-0.163282	-0.912454
N154	N	1.552963	0.336718	-0.412454
H155	H	1.091099	-0.144759	-0.868489
H156	H	1.591099	0.355241	-0.368489
H157	H	1.044675	-0.132331	-0.974054
H158	H	1.544675	0.367669	-0.474054
N159	N	1.068293	-1.077063	-0.366710
N160	N	1.568293	-0.577063	0.133290
H161	H	1.057798	-1.064808	-0.291627
H162	H	1.557798	-0.564808	0.208373
H163	H	1.061725	-1.127194	-0.376993
H164	H	1.561725	-0.627194	0.123007
N165	N	0.888185	-0.930144	-0.645748
N166	N	1.388185	-0.430144	-0.145748
H167	H	0.856825	-0.900862	-0.602998
H168	H	1.356825	-0.400862	-0.102998
H169	H	0.915709	-0.900809	-0.694458
H170	H	1.415709	-0.400809	-0.194458
H171	H	0.364645	-0.404528	-0.384034
H172	H	0.864645	0.095472	0.115966
N173	N	0.582826	-0.415926	-0.366214
N174	N	1.082826	0.084074	0.133786
H175	H	0.532687	-0.409373	-0.376433
H176	H	1.032687	0.090627	0.123567
H177	H	0.595171	-0.464278	-0.382421
H178	H	1.095171	0.035722	0.117579
H179	H	0.899565	-0.711964	-0.627947
H180	H	1.399565	-0.211964	-0.127947
N181	N	0.374130	-0.236225	-0.646089
N182	N	0.874130	0.263775	-0.146089
H183	H	0.341035	-0.208838	-0.688734
H184	H	0.841035	0.291162	-0.188734
H185	H	0.403456	-0.204868	-0.603406
H186	H	0.903456	0.295132	-0.103406
N187	N	0.227203	-0.236234	-0.646114
N188	N	0.727203	0.263766	-0.146114
H189	H	0.177055	-0.242795	-0.635907
H190	H	0.677055	0.257205	-0.135907
H191	H	0.239572	-0.187880	-0.629901
H192	H	0.739572	0.312120	-0.129901
H193	H	1.056708	-0.711961	-0.384356
H194	H	1.556708	-0.211961	0.115644
H195	H	0.899647	-0.404441	-1.106161
H196	H	1.399647	0.095559	-0.606161
H197	H	0.720414	-0.404492	-0.383997
H198	H	1.220414	0.095508	0.116003
N199	N	0.888239	-1.077070	-0.645780
N200	N	1.388239	-0.577070	-0.145780
H201	H	0.860793	-1.043955	-0.688306
H202	H	1.360793	-0.543955	-0.188306
H203	H	0.915786	-1.106355	-0.694440
H204	H	1.415786	-0.606355	-0.194440
N205	N	1.046740	-0.166704	-1.106724
N206	N	1.546740	0.333296	-0.606724
H207	H	1.047661	-0.169096	-1.185779
H208	H	1.547661	0.330904	-0.685779
H209	H	0.999017	-0.158116	-1.082224
H210	H	1.499017	0.341884	-0.582224
