data_functionalizedCrystal
_audit_creation_method	'MofGen! by Chris Wilmer'
_symmetry_space_group_name_H-M	'P1'
_symmetry_Int_Tables_number	1
_symmetry_cell_setting	triclinic
loop_
_symmetry_equiv_pos_as_xyz
  x,y,z
_cell_length_a	16.959453
_cell_length_b	12.759401
_cell_length_c	12.759393
_cell_angle_alpha	90.020938
_cell_angle_beta	90.033999
_cell_angle_gamma	90.026346
loop_
_atom_site_label
_atom_site_type_symbol
_atom_site_fract_x
_atom_site_fract_y
_atom_site_fract_z
Zn1	Zn	-0.314611	1.606192	0.593995
Zn2	Zn	-0.446810	1.606053	0.418304
Zn3	Zn	-0.314653	1.430491	0.418330
Zn4	Zn	-0.446755	1.430452	0.593941
O5	O	-0.380707	1.518297	0.506142
O6	O	-0.332153	1.753195	0.570700
O7	O	-0.429320	1.582722	0.271286
O8	O	-0.204037	1.453873	0.441665
O9	O	-0.429279	1.753092	0.441621
O10	O	-0.204006	1.582960	0.570725
O11	O	-0.332225	1.453738	0.271305
O12	O	-0.332171	1.283465	0.441613
O13	O	-0.429185	1.453807	0.740969
O14	O	-0.429226	1.283436	0.570634
O15	O	-0.332100	1.582922	0.741009
O16	O	-0.557414	1.582684	0.441569
O17	O	-0.557373	1.453671	0.570609
C18	C	-0.380698	1.245330	0.506121
C19	C	-0.380713	1.128553	0.506137
C20	C	-0.431326	1.073704	0.573213
C21	C	-0.431329	0.963980	0.573234
C22	C	-0.330103	0.963964	0.439095
C23	C	-0.330097	1.073686	0.439080
C24	C	-0.586074	1.518186	0.506104
C25	C	-0.673930	1.518235	0.506122
C26	C	-0.715212	1.451031	0.573260
C27	C	-0.715202	1.585492	0.439008
C28	C	-0.797748	1.585544	0.439027
C29	C	-0.839030	1.518340	0.506165
C30	C	-0.797766	1.451083	0.573283
C31	C	-0.839018	1.652806	0.371917
C32	C	-0.921569	1.652862	0.371934
C33	C	-0.962852	1.585652	0.439068
C34	C	-0.921583	1.518392	0.506188
C35	C	-0.962865	1.451188	0.573326
C36	C	-0.921598	1.383922	0.640442
C37	C	-0.839049	1.383873	0.640416
C38	C	-1.045401	1.585700	0.439093
C39	C	-1.045419	1.451240	0.573349
C40	C	-0.174539	1.518437	0.506204
C41	C	-0.086683	1.518496	0.506230
C42	C	-0.380632	1.518376	0.780176
C43	C	-0.380599	1.518409	0.896953
C44	C	-0.380718	1.792330	0.506164
C45	C	-0.380722	1.909107	0.506173
C46	C	-0.380726	1.518279	0.233175
C47	C	-0.380536	1.518449	0.116399
C48	C	-0.330039	1.585645	0.951837
C49	C	-0.330005	1.585663	1.061561
C50	C	-0.431098	1.451206	1.061507
C51	C	-0.431128	1.451184	0.951785
H52	H	-0.288877	1.118346	0.384459
C53	C	-0.275257	1.658577	0.892114
C54	C	-0.286115	1.644188	0.784275
C55	C	-0.235667	1.711361	0.729230
H56	H	-0.222112	1.643301	0.909986
H57	H	-0.286827	1.729188	0.910042
H58	H	-0.274540	1.573593	0.766355
H59	H	-0.339250	1.659471	0.766372
H60	H	-0.247237	1.781972	0.747157
H61	H	-0.182526	1.696081	0.747111
H62	H	-0.243033	1.701615	0.656056
C63	C	-0.486174	1.133220	0.646201
C64	C	-0.469039	1.106610	0.750195
C65	C	-0.519541	1.161422	0.817465
H66	H	-0.539299	1.115248	0.630844
H67	H	-0.478917	1.206433	0.636658
H68	H	-0.476303	1.033413	0.759733
H69	H	-0.415924	1.124584	0.765584
H70	H	-0.512284	1.234635	0.807922
H71	H	-0.572663	1.143446	0.802099
H72	H	-0.507917	1.143382	0.888032
C73	C	-0.486152	0.904374	0.646188
C74	C	-0.441462	0.841464	0.713666
C75	C	-0.491938	0.786552	0.780899
H76	H	-0.520572	0.861445	0.606045
H77	H	-0.516279	0.952735	0.686182
H78	H	-0.411348	0.793108	0.673677
H79	H	-0.407044	0.884367	0.753833
H80	H	-0.522066	0.834913	0.820893
H81	H	-0.526356	0.743628	0.740747
H82	H	-0.461623	0.743868	0.826698
C83	C	-0.274982	1.658605	1.121012
C84	C	-0.196783	1.635798	1.094313
C85	C	-0.146071	1.702982	1.149045
H86	H	-0.282087	1.649060	1.194229
H87	H	-0.286514	1.729201	1.103015
H88	H	-0.185255	1.565219	1.112316
H89	H	-0.189653	1.645349	1.021105
H90	H	-0.157604	1.773578	1.131049
H91	H	-0.153183	1.693432	1.222259
H92	H	-0.093009	1.687523	1.130930
H93	H	-0.472239	1.396476	1.106165
H94	H	-1.079025	1.396513	0.628021
C95	C	-0.486073	1.378352	0.892053
C96	C	-0.536739	1.437791	0.829033
C97	C	-0.587352	1.370736	0.773982
H98	H	-0.516241	1.338299	0.940301
H99	H	-0.455864	1.332607	0.849193
H100	H	-0.566945	1.483518	0.871890
H101	H	-0.506593	1.477842	0.780766
H102	H	-0.557143	1.324990	0.731122
H103	H	-0.617515	1.330686	0.822237
H104	H	-0.621731	1.411054	0.731210
H105	H	-0.288895	0.919278	0.384497
C106	C	-0.966565	1.311001	0.713220
C107	C	-1.047689	1.325437	0.698855
C108	C	-1.089140	1.258274	0.765868
H109	H	-0.953078	1.326254	0.783865
H110	H	-0.953149	1.240385	0.697760
H111	H	-1.061099	1.396036	0.714322
H112	H	-1.061199	1.310176	0.628224
H113	H	-1.075724	1.187658	0.750409
H114	H	-1.075647	1.273533	0.836509
H115	H	-1.144187	1.268053	0.756124
C116	C	-0.966512	1.725941	0.299275
C117	C	-1.047641	1.711664	0.313720
C118	C	-1.089068	1.779017	0.246856
H119	H	-0.953168	1.710759	0.228591
H120	H	-0.952933	1.796503	0.314819
H121	H	-1.061214	1.641118	0.298168
H122	H	-1.061008	1.726854	0.384390
H123	H	-1.075489	1.849580	0.262400
H124	H	-1.075717	1.763829	0.176176
H125	H	-1.144118	1.769347	0.256655
C126	C	-0.794102	1.310969	0.713247
C127	C	-0.712974	1.325334	0.698878
C128	C	-0.671541	1.258207	0.765963
H129	H	-0.807589	1.240351	0.697877
H130	H	-0.807532	1.326324	0.783878
H131	H	-0.699548	1.309971	0.628263
H132	H	-0.699463	1.395938	0.714255
H133	H	-0.684972	1.273562	0.836594
H134	H	-0.685034	1.187593	0.750588
H135	H	-0.616492	1.267951	0.756230
C136	C	-0.670242	1.658340	0.366161
C137	C	-0.589117	1.643884	0.380491
C138	C	-0.547673	1.710967	0.313389
H139	H	-0.683618	1.728973	0.381539
H140	H	-0.683775	1.643002	0.295536
H141	H	-0.575589	1.659230	0.451101
H142	H	-0.575718	1.573265	0.365106
H143	H	-0.561206	1.695629	0.242764
H144	H	-0.561055	1.781595	0.328773
H145	H	-0.492625	1.701161	0.323096
H146	H	-0.681610	1.396261	0.627902
H147	H	-0.805404	1.707527	0.317261
H148	H	-1.078997	1.640474	0.384455
