data_functionalizedCrystal
_audit_creation_method	'MofGen! by Chris Wilmer'
_symmetry_space_group_name_H-M	'P1'
_symmetry_Int_Tables_number	1
_symmetry_cell_setting	triclinic
loop_
_symmetry_equiv_pos_as_xyz
  x,y,z
_cell_length_a	8.634740
_cell_length_b	10.723023
_cell_length_c	7.681481
_cell_angle_alpha	84.204195
_cell_angle_beta	96.618947
_cell_angle_gamma	92.518927
loop_
_atom_site_label
_atom_site_type_symbol
_atom_site_fract_x
_atom_site_fract_y
_atom_site_fract_z
O1	O	2.035896	0.417428	-0.146418
O2	O	2.535896	0.917428	0.353582
O3	O	1.586583	0.383270	-0.146423
O4	O	2.086583	0.883270	0.353577
O5	O	1.821605	0.219946	-0.146413
O6	O	2.321605	0.719946	0.353587
O7	O	1.800874	0.580751	-0.146428
O8	O	2.300874	1.080751	0.353572
O9	O	1.850532	0.199790	0.146446
O10	O	2.350532	0.699790	0.646446
O11	O	1.615509	0.363114	0.146436
O12	O	2.115509	0.863114	0.646436
O13	O	2.064823	0.397272	0.146441
O14	O	2.564823	0.897272	0.646441
Zn15	Zn	1.844759	0.376993	0.192936
Zn16	Zn	2.344759	0.876993	0.692936
Zn17	Zn	1.806647	0.403549	-0.192918
Zn18	Zn	2.306647	0.903549	0.307082
O19	O	1.829801	0.560595	0.146431
O20	O	2.329801	1.060595	0.646431
C21	C	1.543514	0.365454	0.000006
C22	C	2.043514	0.865454	0.500006
C23	C	1.372086	0.342382	0.000004
C24	C	1.872086	0.842382	0.500004
C25	C	1.834560	0.163198	0.000014
C26	C	2.334560	0.663198	0.500014
C27	C	1.830046	0.024133	0.000009
C28	C	2.330046	0.524133	0.500009
C29	C	1.813050	-0.027419	-0.151703
C30	C	2.313050	0.472581	0.348297
C31	C	1.808385	-0.171150	-0.151713
C32	C	2.308385	0.328850	0.348287
C33	C	2.107891	0.415088	0.000008
C34	C	2.607891	0.915088	0.500008
C35	C	2.279317	0.438161	-0.000002
C36	C	2.779317	0.938161	0.499998
C37	C	1.816845	0.617344	-0.000000
C38	C	2.316845	1.117344	0.500000
C39	C	1.821357	0.756410	-0.000006
C40	C	2.321357	1.256410	0.499994
N41	N	1.870781	0.358869	0.456271
N42	N	2.370781	0.858869	0.956271
N43	N	1.780637	0.421664	-0.456253
N44	N	2.280637	0.921664	0.043747
H45	H	1.331049	0.537818	0.000006
H46	H	1.831049	1.037818	0.500006
H47	H	1.801945	0.034853	-0.281583
H48	H	2.301945	0.534853	0.218417
Cl49	Cl	1.292236	0.188521	0.000022
Cl50	Cl	1.792236	0.688521	0.500022
H51	H	1.962817	0.294782	0.531481
H52	H	2.462817	0.794782	1.031481
H53	H	1.793833	-0.215524	-0.281599
H54	H	2.293833	0.284476	0.218401
Cl55	Cl	1.843849	-0.175097	0.200546
Cl56	Cl	2.343849	0.324903	0.700546
H57	H	1.841135	-0.038140	0.129888
H58	H	2.341135	0.461860	0.629888
H59	H	1.688618	0.485757	0.468546
H60	H	2.188618	0.985757	0.968546
