data_functionalizedCrystal
_audit_creation_method	'MofGen! by Chris Wilmer'
_symmetry_space_group_name_H-M	'P1'
_symmetry_Int_Tables_number	1
_symmetry_cell_setting	triclinic
loop_
_symmetry_equiv_pos_as_xyz
  x,y,z
_cell_length_a	15.625020
_cell_length_b	9.565339
_cell_length_c	15.625429
_cell_angle_alpha	108.077959
_cell_angle_beta	78.663779
_cell_angle_gamma	108.080720
loop_
_atom_site_label
_atom_site_type_symbol
_atom_site_fract_x
_atom_site_fract_y
_atom_site_fract_z
O1	O	1.196363	0.782506	0.117657
O2	O	0.933900	0.656540	0.131687
O3	O	1.072149	0.656555	-0.006554
O4	O	1.058114	0.782491	0.255898
O5	O	1.072155	0.424040	-0.006550
O6	O	0.933906	0.424025	0.131691
O7	O	1.196369	0.549991	0.117661
Zn8	Zn	1.065138	0.450091	0.124677
Zn9	Zn	1.065131	0.756440	0.124671
O10	O	1.058120	0.549976	0.255902
C11	C	0.900314	0.522931	0.131055
C12	C	0.800229	0.471221	0.129154
C13	C	0.659166	0.271603	0.126477
C14	C	0.753211	0.320207	0.128263
C15	C	0.753214	0.573688	0.128255
C16	C	0.659168	0.525104	0.126464
C17	C	0.612151	0.374060	0.125576
C18	C	0.612153	0.627560	0.125564
C19	C	0.518115	0.578981	0.123778
C20	C	0.471091	0.427945	0.122893
C21	C	0.518113	0.325480	0.123790
C22	C	0.659171	0.778607	0.126458
C23	C	0.612156	0.881063	0.125558
C24	C	0.518117	0.832482	0.123765
C25	C	0.471093	0.681445	0.122880
C26	C	0.471095	0.934946	0.122868
C27	C	0.377056	0.886367	0.121082
C28	C	0.377055	0.632866	0.121094
N29	N	1.065151	0.241020	0.124680
C30	C	1.129106	0.149873	0.060752
C31	C	1.047618	0.006458	0.043142
C32	C	1.146607	0.106833	0.142231
C33	C	0.983621	0.099615	0.107030
C34	C	1.082664	0.200044	0.206153
C35	C	1.001116	0.056658	0.188578
C36	C	1.229955	0.683604	0.118293
C37	C	1.330040	0.735323	0.120194
C38	C	1.071518	0.522952	-0.040140
C39	C	1.069619	0.471262	-0.140221
N40	N	1.065126	0.965512	0.124661
C41	C	1.063332	0.934913	-0.469385
C42	C	1.061543	0.886297	-0.563426
C43	C	1.061550	0.632826	-0.563408
C44	C	1.063343	0.681423	-0.469366
C45	C	1.064232	0.832468	-0.422362
C46	C	1.064244	0.578977	-0.422343
C47	C	1.066032	0.627569	-0.328308
C48	C	1.066919	0.778606	-0.281298
C49	C	1.066020	0.881059	-0.328328
C50	C	1.063348	0.427930	-0.469348
C51	C	1.064249	0.325484	-0.422324
C52	C	1.066043	0.374078	-0.328289
C53	C	1.066930	0.525116	-0.281278
C54	C	1.066941	0.271625	-0.281259
C55	C	1.068729	0.320217	-0.187224
C56	C	1.068718	0.573707	-0.187244
C57	C	1.058751	0.683582	0.289488
C58	C	1.060650	0.735282	0.389569
H59	H	0.338769	0.509876	0.120382
H60	H	1.097519	0.283457	0.275040
H61	H	0.394518	0.388396	0.121443
C62	C	1.069701	0.739867	-0.135535
N63	N	1.070439	0.865012	-0.096587
H64	H	0.509389	1.057930	0.123600
H65	H	1.069444	0.236786	-0.148935
C66	C	0.663886	1.047206	0.126530
N67	N	0.702848	1.172345	0.127257
H68	H	1.061882	0.388367	-0.545915
C69	C	0.325337	0.999074	0.120089
N70	N	0.286382	1.083969	0.119344
C71	C	0.607444	0.105441	0.125489
N72	N	0.568487	-0.019706	0.124746
C73	C	0.804925	0.207481	0.129249
N74	N	0.843875	0.122578	0.129992
C75	C	0.762617	0.832041	0.128422
N76	N	0.840533	0.872285	0.129899
H77	H	0.791508	0.696671	0.128981
H78	H	1.183140	0.190739	0.006663
H79	H	1.032787	-0.076924	-0.025766
C80	C	1.060527	0.998998	-0.615145
N81	N	1.059751	1.083877	-0.654098
C82	C	0.927957	0.001683	0.261604
N83	N	0.872850	-0.039732	0.316603
H84	H	1.064064	1.057913	-0.431113
H85	H	0.479828	0.202490	0.123079
H86	H	1.063521	0.202501	-0.460607
H87	H	1.215504	0.108329	0.157084
H88	H	1.066753	1.004059	-0.290055
C89	C	1.065951	0.105475	-0.332974
N90	N	1.065203	-0.019673	-0.371926
C91	C	1.060568	0.466678	-0.615122
N92	N	1.059830	0.341534	-0.654073
H93	H	0.914708	0.097900	0.092099
H94	H	1.068365	0.818163	-0.204727
