data_functionalizedCrystal
_audit_creation_method	'MofGen! by Chris Wilmer'
_symmetry_space_group_name_H-M	'P1'
_symmetry_Int_Tables_number	1
_symmetry_cell_setting	triclinic
loop_
_symmetry_equiv_pos_as_xyz
  x,y,z
_cell_length_a	17.077404
_cell_length_b	13.897448
_cell_length_c	17.077396
_cell_angle_alpha	90.027368
_cell_angle_beta	90.019501
_cell_angle_gamma	90.017917
loop_
_atom_site_label
_atom_site_type_symbol
_atom_site_fract_x
_atom_site_fract_y
_atom_site_fract_z
Zn1	Zn	1.200083	-0.384009	0.443849
Zn2	Zn	1.700083	0.115991	0.943849
Zn3	Zn	1.200002	-0.545322	0.312585
Zn4	Zn	1.700002	-0.045322	0.812585
Zn5	Zn	1.068815	-0.384043	0.312597
Zn6	Zn	1.568815	0.115957	0.812597
Zn7	Zn	1.068795	-0.545264	0.443809
Zn8	Zn	1.568795	-0.045264	0.943809
O9	O	1.134424	-0.464660	0.378210
O10	O	1.634424	0.035340	0.878210
O11	O	1.309919	-0.405417	0.426448
O12	O	1.809919	0.094583	0.926448
O13	O	1.182574	-0.523966	0.202740
O14	O	1.682574	-0.023966	0.702740
O15	O	1.086270	-0.249057	0.330029
O16	O	1.586270	0.250943	0.830029
O17	O	1.309860	-0.523933	0.330010
O18	O	1.809860	-0.023933	0.830010
O19	O	1.182712	-0.249032	0.426459
O20	O	1.682712	0.250968	0.926459
O21	O	1.086192	-0.405475	0.202748
O22	O	1.586192	0.094525	0.702748
O23	O	0.958965	-0.405420	0.329990
O24	O	1.458965	0.094580	0.829990
O25	O	1.086236	-0.523835	0.553661
O26	O	1.586236	-0.023835	1.053661
O27	O	0.958950	-0.523868	0.426391
O28	O	1.458950	-0.023868	0.926391
O29	O	1.182693	-0.405362	0.553690
O30	O	1.682693	0.094638	1.053690
O31	O	1.182555	-0.680296	0.329971
O32	O	1.682555	-0.180296	0.829971
O33	O	1.086157	-0.680254	0.426380
O34	O	1.586157	-0.180254	0.926380
C35	C	0.930476	-0.464642	0.378188
C36	C	1.430476	0.035358	0.878188
C37	C	0.843226	-0.464658	0.378198
C38	C	1.343226	0.035342	0.878198
C39	C	0.802249	-0.526427	0.428313
C40	C	1.302249	-0.026427	0.928313
C41	C	0.720268	-0.526429	0.428326
C42	C	1.220268	-0.026429	0.928326
C43	C	0.679267	-0.464666	0.378218
C44	C	1.179267	0.035334	0.878218
C45	C	0.720250	-0.402890	0.328100
C46	C	1.220250	0.097110	0.828100
C47	C	0.802229	-0.402884	0.328092
C48	C	1.302229	0.097116	0.828092
C49	C	0.549380	-0.402909	0.328119
C50	C	1.049380	0.097091	0.828119
C51	C	0.467395	-0.402916	0.328126
C52	C	0.967395	0.097084	0.828126
C53	C	0.467419	-0.526454	0.428353
C54	C	0.967419	-0.026454	0.928353
C55	C	0.549398	-0.526448	0.428345
C56	C	1.049398	-0.026448	0.928345
C57	C	0.590376	-0.464673	0.378226
C58	C	1.090376	0.035327	0.878226
C59	C	1.134366	-0.715274	0.378187
C60	C	1.634366	-0.215274	0.878187
C61	C	1.134414	-0.822488	0.378204
C62	C	1.634414	-0.322488	0.878204
C63	C	1.134496	-1.018783	0.378253
C64	C	1.634496	-0.518783	0.878253
C65	C	1.134448	-0.909550	0.378228
C66	C	1.634448	-0.409550	0.878228
C67	C	1.339168	-0.464678	0.378232
C68	C	1.839168	0.035322	0.878232
C69	C	1.426418	-0.464686	0.378242
C70	C	1.926418	0.035314	0.878242
C71	C	1.134471	-0.464588	0.582954
C72	C	1.634471	0.035412	1.082954
C73	C	1.134491	-0.464558	0.670204
C74	C	1.634491	0.035442	1.170204
C75	C	1.134502	-0.213067	0.378250
C76	C	1.634502	0.286933	0.878250
C77	C	1.134536	-0.105853	0.378267
C78	C	1.634536	0.394147	0.878267
C79	C	1.134421	-0.464661	0.174262
C80	C	1.634421	0.035339	0.674262
C81	C	1.134553	-0.464419	0.087013
C82	C	1.634553	0.035581	0.587013
C83	C	1.184718	-0.402864	0.711211
C84	C	1.684718	0.097136	1.211211
C85	C	1.184728	-0.402832	0.793191
C86	C	1.684728	0.097168	1.293191
C87	C	1.134514	-0.464500	0.834164
C88	C	1.634514	0.035500	1.334164
C89	C	1.084281	-0.526197	0.793151
C90	C	1.584281	-0.026197	1.293151
C91	C	1.084268	-0.526223	0.711172
C92	C	1.584268	-0.026223	1.211172
C93	C	1.084313	-0.526139	0.964021
C94	C	1.584313	-0.026139	1.464021
C95	C	1.084326	-0.526114	1.046006
C96	C	1.584326	-0.026114	1.546006
C97	C	1.184772	-0.402747	1.046040
C98	C	1.684772	0.097253	1.546040
C99	C	1.184759	-0.402774	0.964061
C100	C	1.684759	0.097226	1.464061
C101	C	1.134528	-0.464472	0.923055
C102	C	1.634528	0.035528	1.423055
H103	H	0.582741	-0.352597	0.287314
H104	H	1.082741	0.147403	0.787314
H105	H	1.043393	-0.576404	0.826517
H106	H	1.543393	-0.076404	1.326517
H107	H	1.043396	-0.576365	0.930636
H108	H	1.543396	-0.076365	1.430636
H109	H	1.225611	-0.352650	0.677857
H110	H	1.725611	0.147350	1.177857
H111	H	1.225629	-0.352596	0.826575
H112	H	1.725629	0.147404	1.326575
C113	C	0.675197	-0.594399	0.483442
C114	C	1.175197	-0.094399	0.983442
N115	N	0.641250	-0.645603	0.524953
N116	N	1.141250	-0.145603	1.024953
H117	H	1.225653	-0.352564	0.930704
H118	H	1.725653	0.147436	1.430704
C119	C	1.029016	-0.594093	0.666065
C120	C	1.529016	-0.094093	1.166065
N121	N	0.987397	-0.645214	0.632092
N122	N	1.487397	-0.145214	1.132092
H123	H	0.686860	-0.352597	0.287305
H124	H	1.186860	0.147403	0.787305
C125	C	0.422295	-0.334970	0.273008
C126	C	0.922295	0.165030	0.773008
N127	N	0.388325	-0.283791	0.231493
N128	N	0.888325	0.216209	0.731493
H129	H	0.835626	-0.576725	0.469114
H130	H	1.335626	-0.076725	0.969114
H131	H	1.043436	-0.576327	1.079364
H132	H	1.543436	-0.076327	1.579364
C133	C	0.422343	-0.594403	0.483488
C134	C	0.922343	-0.094403	0.983488
N135	N	0.388387	-0.645582	0.525013
N136	N	0.888387	-0.145582	1.025013
C137	C	0.847303	-0.334935	0.272960
C138	C	1.347303	0.165065	0.772960
N139	N	0.881252	-0.283752	0.231433
N140	N	1.381252	0.216248	0.731433
H141	H	0.582779	-0.576746	0.469142
H142	H	1.082779	-0.076746	0.969142
C143	C	1.240027	-0.334877	1.091149
C144	C	1.740027	0.165123	1.591149
N145	N	1.281646	-0.283763	1.125129
N146	N	1.781646	0.216237	1.625129
