data_functionalizedCrystal
_audit_creation_method	'MofGen! by Chris Wilmer'
_symmetry_space_group_name_H-M	'P1'
_symmetry_Int_Tables_number	1
_symmetry_cell_setting	triclinic
loop_
_symmetry_equiv_pos_as_xyz
  x,y,z
_cell_length_a	21.395364
_cell_length_b	21.395363
_cell_length_c	21.395355
_cell_angle_alpha	90.004913
_cell_angle_beta	90.024552
_cell_angle_gamma	90.016642
loop_
_atom_site_label
_atom_site_type_symbol
_atom_site_fract_x
_atom_site_fract_y
_atom_site_fract_z
Zn1	Zn	0.957985	-0.249261	0.354321
Zn2	Zn	1.457985	0.250739	0.854321
Zn3	Zn	0.957941	-0.354021	0.249568
Zn4	Zn	1.457941	0.145979	0.749568
Zn5	Zn	0.853200	-0.249289	0.249557
Zn6	Zn	1.353200	0.250711	0.749557
Zn7	Zn	0.853223	-0.354032	0.354308
Zn8	Zn	1.353223	0.145968	0.854308
O9	O	0.905587	-0.301651	0.301939
O10	O	1.405587	0.198349	0.801939
O11	O	1.045657	-0.263141	0.340435
O12	O	1.545657	0.236859	0.840435
O13	O	0.944019	-0.340135	0.161889
O14	O	1.444019	0.159865	0.661889
O15	O	0.867110	-0.161607	0.263455
O16	O	1.367110	0.338393	0.763455
O17	O	1.045625	-0.340108	0.263473
O18	O	1.545625	0.159892	0.763473
O19	O	0.944095	-0.161587	0.340424
O20	O	1.444095	0.338413	0.840424
O21	O	0.867067	-0.263188	0.161881
O22	O	1.367067	0.236812	0.661881
O23	O	0.765526	-0.263199	0.263443
O24	O	1.265526	0.236801	0.763443
O25	O	0.867148	-0.340127	0.441988
O26	O	1.367148	0.159873	0.941988
O27	O	0.765542	-0.340154	0.340403
O28	O	1.265542	0.159846	0.840403
O29	O	0.944116	-0.263152	0.441997
O30	O	1.444116	0.236848	0.941997
O31	O	0.944041	-0.441700	0.263461
O32	O	1.444041	0.058300	0.763461
O33	O	0.867105	-0.441708	0.340414
O34	O	1.367105	0.058292	0.840414
C35	C	0.742800	-0.301681	0.301921
C36	C	1.242800	0.198319	0.801921
C37	C	0.673159	-0.301709	0.301928
C38	C	1.173159	0.198291	0.801928
C39	C	0.640485	-0.261698	0.342064
C40	C	1.140485	0.238302	0.842064
C41	C	0.575049	-0.261682	0.342067
C42	C	1.075049	0.238318	0.842067
C43	C	0.542290	-0.301687	0.301940
C44	C	1.042290	0.198313	0.801940
C45	C	0.574972	-0.341701	0.261796
C46	C	1.074972	0.158299	0.761796
C47	C	0.640406	-0.341712	0.261791
C48	C	1.140406	0.158288	0.761791
C49	C	0.438594	-0.358112	0.296916
C50	C	0.938594	0.141888	0.796916
C51	C	0.373162	-0.358102	0.296926
C52	C	0.873162	0.141898	0.796926
C53	C	0.340469	-0.301653	0.301954
C54	C	0.840469	0.198347	0.801954
C55	C	0.373218	-0.245212	0.306985
C56	C	0.873218	0.254788	0.806985
C57	C	0.438653	-0.245223	0.306979
C58	C	0.938653	0.254777	0.806979
C59	C	0.471338	-0.301679	0.301941
C60	C	0.971338	0.198321	0.801941
C61	C	0.236843	-0.261620	0.342094
C62	C	0.736843	0.238380	0.842094
C63	C	0.171407	-0.261603	0.342092
C64	C	0.671407	0.238397	0.842092
C65	C	0.171330	-0.341627	0.261825
C66	C	0.671330	0.158373	0.761825
C67	C	0.236766	-0.341639	0.261824
C68	C	0.736766	0.158361	0.761824
C69	C	0.269518	-0.301637	0.301962
C70	C	0.769518	0.198363	0.801962
C71	C	0.905587	-0.464438	0.301951
C72	C	1.405587	0.035562	0.801951
C73	C	0.905644	-0.534079	0.301977
C74	C	1.405644	-0.034079	0.801977
C75	C	0.905639	-0.301638	0.465362
C76	C	1.405639	0.198362	0.965362
C77	C	0.905662	-0.301633	0.535003
C78	C	1.405662	0.198367	1.035003
C79	C	1.069011	-0.301620	0.301957
C80	C	1.569011	0.198380	0.801957
C81	C	1.138652	-0.301608	0.301964
C82	C	1.638652	0.198392	0.801964
C83	C	0.905605	-0.138227	0.301940
C84	C	1.405605	0.361773	0.801940
C85	C	0.905612	-0.068586	0.301941
C86	C	1.405612	0.431414	0.801941
C87	C	0.865556	-0.035882	0.342002
C88	C	1.365556	0.464118	0.842002
C89	C	0.865562	0.029554	0.342011
C90	C	1.365562	0.529554	0.842011
C91	C	0.905617	0.062282	0.301947
C92	C	1.405617	0.562282	0.801947
C93	C	0.945682	0.029570	0.261882
C94	C	1.445682	0.529570	0.761882
C95	C	0.945679	-0.035864	0.261879
C96	C	1.445679	0.464136	0.761879
C97	C	0.910549	0.165949	0.245503
C98	C	1.410549	0.665949	0.745503
C99	C	0.910547	0.231382	0.245505
C100	C	1.410547	0.731382	0.745505
C101	C	0.905629	0.264103	0.301957
C102	C	1.405629	0.764103	0.801957
C103	C	0.900700	0.231383	0.358408
C104	C	1.400700	0.731383	0.858408
C105	C	0.900697	0.165949	0.358405
C106	C	1.400697	0.665949	0.858405
C107	C	0.905625	0.133235	0.301946
C108	C	1.405625	0.633235	0.801946
C109	C	0.865577	0.367760	0.342031
C110	C	1.365577	0.867760	0.842031
C111	C	0.865588	0.433197	0.342041
C112	C	1.365588	0.933197	0.842041
C113	C	0.945704	0.433212	0.261907
C114	C	1.445704	0.933212	0.761907
C115	C	0.945697	0.367776	0.261903
C116	C	1.445697	0.867776	0.761903
C117	C	0.905630	0.335054	0.301964
C118	C	1.405630	0.835054	0.801964
C119	C	0.905572	-0.301618	0.139151
C120	C	1.405572	0.198382	0.639151
C121	C	0.905671	-0.301447	0.069510
C122	C	1.405671	0.198553	0.569510
C123	C	0.945737	-0.261550	0.567722
C124	C	1.445737	0.238450	1.067722
C125	C	0.945737	-0.261523	0.633158
C126	C	1.445737	0.238477	1.133158
C127	C	0.905666	-0.301590	0.665872
C128	C	1.405666	0.198410	1.165872
C129	C	0.865583	-0.341675	0.633145
C130	C	1.365583	0.158325	1.133145
C131	C	0.865580	-0.341696	0.567711
C132	C	1.365580	0.158304	1.067711
C133	C	0.900719	-0.358006	0.769551
C134	C	1.400719	0.141994	1.269551
C135	C	0.900726	-0.357986	0.834984
C136	C	1.400726	0.142014	1.334984
C137	C	0.905670	-0.301524	0.867692
C138	C	1.405670	0.198476	1.367692
C139	C	0.910621	-0.245080	0.834960
C140	C	1.410621	0.254920	1.334960
C141	C	0.910619	-0.245101	0.769526
C142	C	1.410619	0.254899	1.269526
C143	C	0.905664	-0.301571	0.736824
C144	C	1.405664	0.198429	1.236824
C145	C	0.945747	-0.261409	0.971364
C146	C	1.445747	0.238591	1.471364
C147	C	0.945742	-0.261381	1.036801
C148	C	1.445742	0.238619	1.536801
C149	C	0.865592	-0.341538	1.036787
C150	C	1.365592	0.158462	1.536787
C151	C	0.865594	-0.341561	0.971351
C152	C	1.365594	0.158439	1.471351
C153	C	0.905675	-0.301497	0.938644
C154	C	1.405675	0.198503	1.438644
H155	H	0.346602	-0.199245	0.311079
H156	H	0.846602	0.300755	0.811079
Cl157	Cl	0.894508	-0.428944	0.876126
Cl158	Cl	1.394508	0.071056	1.376126
H159	H	0.832928	-0.062520	0.374621
H160	H	1.332928	0.437480	0.874621
H161	H	0.832959	-0.374155	1.063422
H162	H	1.332959	0.125845	1.563422
Cl163	Cl	0.815231	0.474311	0.392413
Cl164	Cl	1.315231	0.974311	0.892413
H165	H	0.465207	-0.404083	0.292821
H166	H	0.965207	0.095917	0.792821
Cl167	Cl	0.278021	-0.211328	0.392547
Cl168	Cl	0.778021	0.288672	0.892547
H169	H	0.832955	-0.374296	0.659785
H170	H	1.332955	0.125704	1.159785
H171	H	0.978376	-0.228737	1.063439
H172	H	1.478376	0.271263	1.563439
Cl173	Cl	0.533965	-0.211378	0.392526
Cl174	Cl	1.033965	0.288622	0.892526
Cl175	Cl	0.815212	-0.391956	0.930217
Cl176	Cl	1.315212	0.108044	1.430217
H177	H	0.144805	-0.229017	0.374774
H178	H	0.644805	0.270983	0.874774
H179	H	0.914648	-0.199102	0.861590
H180	H	1.414648	0.300898	1.361590
Cl181	Cl	0.894522	-0.428997	0.728438
Cl182	Cl	1.394522	0.071003	1.228438
H183	H	0.346502	-0.404059	0.292832
H184	H	0.846502	0.095941	0.792832
Cl185	Cl	0.815195	-0.392091	0.526576
Cl186	Cl	1.315195	0.107909	1.026576
H187	H	0.667148	-0.229125	0.374747
H188	H	1.167148	0.270875	0.874747
H189	H	0.667009	-0.374295	0.229106
H190	H	1.167009	0.125705	0.729106
Cl191	Cl	0.479821	-0.174272	0.313300
Cl192	Cl	0.979821	0.325728	0.813300
Cl193	Cl	0.130154	-0.391916	0.211375
Cl194	Cl	0.630154	0.108084	0.711375
H195	H	0.263369	-0.374223	0.229144
H196	H	0.763369	0.125777	0.729144
Cl197	Cl	0.533790	-0.391991	0.211348
Cl198	Cl	1.033790	0.108009	0.711348
H199	H	0.978313	0.341148	0.229277
H200	H	1.478313	0.841148	0.729277
H201	H	0.832942	0.056186	0.374635
H202	H	1.332942	0.556186	0.874635
H203	H	0.896692	0.139312	0.404371
H204	H	1.396692	0.639312	0.904371
Cl205	Cl	0.894433	0.272511	0.429374
Cl206	Cl	1.394433	0.772511	0.929374
H207	H	0.832961	0.341116	0.374660
H208	H	1.332961	0.841116	0.874660
H209	H	0.978321	0.459859	0.229289
H210	H	1.478321	0.959859	0.729289
Cl211	Cl	0.916821	0.272508	0.174545
Cl212	Cl	1.416821	0.772508	0.674545
H213	H	0.978299	-0.062492	0.229256
H214	H	1.478299	0.437508	0.729256
H215	H	0.914556	0.139312	0.199530
H216	H	1.414556	0.639312	0.699530
Cl217	Cl	0.996040	0.070714	0.211519
Cl218	Cl	1.496040	0.570714	0.711519
H219	H	0.978370	-0.228880	0.659802
H220	H	1.478370	0.271120	1.159802
Cl221	Cl	0.996122	-0.211180	0.526608
Cl222	Cl	1.496122	0.288820	1.026608
H223	H	0.914648	-0.199142	0.742878
H224	H	1.414648	0.300858	1.242878
Cl225	Cl	0.996131	-0.211040	0.930243
Cl226	Cl	1.496131	0.288960	1.430243
