data_functionalizedCrystal
_audit_creation_method	'MofGen! by Chris Wilmer'
_symmetry_space_group_name_H-M	'P1'
_symmetry_Int_Tables_number	1
_symmetry_cell_setting	triclinic
loop_
_symmetry_equiv_pos_as_xyz
  x,y,z
_cell_length_a	17.019383
_cell_length_b	17.038272
_cell_length_c	15.186229
_cell_angle_alpha	89.995962
_cell_angle_beta	86.120670
_cell_angle_gamma	87.246883
loop_
_atom_site_label
_atom_site_type_symbol
_atom_site_fract_x
_atom_site_fract_y
_atom_site_fract_z
O1	O	1.053352	0.099657	-0.153028
O2	O	0.824541	0.112345	-0.135696
O3	O	0.937586	-0.007813	-0.144252
O4	O	0.940306	0.219815	-0.144472
O5	O	0.937578	-0.007815	0.002206
O6	O	0.824533	0.112344	0.010762
O7	O	1.053343	0.099655	-0.006570
Zn8	Zn	0.938937	0.105999	0.025349
Zn9	Zn	0.938948	0.106001	-0.167615
O10	O	0.940298	0.219814	0.001986
C11	C	0.795116	0.111861	-0.060238
C12	C	0.707450	0.110412	-0.053597
C13	C	0.666261	0.109734	-0.130305
C14	C	0.583889	0.108385	-0.124053
C15	C	0.542706	0.107708	-0.041091
C16	C	0.583901	0.108389	0.035622
C17	C	0.666271	0.109744	0.029369
C18	C	0.294000	0.103623	-0.018216
C19	C	0.211623	0.102266	-0.011968
C20	C	0.211617	0.102264	-0.171644
C21	C	0.293990	0.103614	-0.177890
C22	C	0.335176	0.104299	-0.101176
C23	C	0.458508	0.106327	-0.034698
C24	C	0.419372	0.105686	-0.107570
C25	C	0.935109	-0.036940	-0.070836
C26	C	0.927728	-0.123727	-0.070277
C27	C	0.995488	-0.173896	-0.075408
C28	C	0.988549	-0.255441	-0.074891
C29	C	0.913849	-0.286816	-0.069236
C30	C	0.846085	-0.236640	-0.064106
C31	C	0.853025	-0.155097	-0.064630
C32	C	0.889332	-0.532554	-0.067391
C33	C	0.882397	-0.614104	-0.066865
C34	C	1.024861	-0.632898	-0.077651
C35	C	1.031795	-0.551353	-0.078169
C36	C	0.964030	-0.501185	-0.073044
C37	C	0.906754	-0.370167	-0.068704
C38	C	0.971126	-0.417834	-0.073582
C39	C	1.082769	0.100139	-0.082029
C40	C	1.170435	0.101588	-0.088676
C41	C	0.942776	0.248941	-0.071432
C42	C	0.950156	0.335728	-0.071997
N43	N	0.938935	0.105997	0.157042
N44	N	0.938955	0.105997	-0.299308
C45	C	0.989011	0.052809	0.378975
C46	C	0.989014	0.052807	0.471165
C47	C	0.888874	0.159188	0.478753
C48	C	0.888868	0.159186	0.386565
C49	C	0.938941	0.105997	0.336678
C50	C	0.938949	0.105997	0.521055
C51	C	0.938951	0.105996	0.621011
C52	C	0.938938	0.105997	0.236716
H53	H	0.699786	0.110283	-0.197861
F54	F	0.540056	0.107665	-0.205696
H55	H	0.178094	0.101737	0.055592
F56	F	0.463203	0.106409	-0.195861
H57	H	1.092623	-0.525814	-0.082774
H58	H	1.029784	0.009496	0.505600
H59	H	1.043726	-0.296286	-0.079068
F60	F	0.817210	-0.479172	-0.061939
H61	H	0.785263	-0.262192	-0.059507
H62	H	0.327524	0.104176	0.044250
H63	H	0.327515	0.104159	-0.245446
F64	F	0.167778	0.101528	-0.253282
F65	F	0.835587	0.215795	0.531852
F66	F	1.042302	-0.003801	0.325885
H67	H	0.550363	0.107843	0.103171
F68	F	0.835571	0.215795	0.341547
F69	F	1.050624	-0.384441	-0.079606
F70	F	0.710107	0.110468	0.111012
F71	F	1.096976	-0.686296	-0.083106
F72	F	0.827256	-0.403566	-0.062689
H73	H	0.424969	0.105774	0.032849
F74	F	1.074994	-0.140513	-0.081419
F75	F	0.802888	-0.647492	-0.060841
F76	F	0.780906	-0.101704	-0.059171
