data_functionalizedCrystal
_audit_creation_method	'MofGen! by Chris Wilmer'
_symmetry_space_group_name_H-M	'P1'
_symmetry_Int_Tables_number	1
_symmetry_cell_setting	triclinic
loop_
_symmetry_equiv_pos_as_xyz
  x,y,z
_cell_length_a	12.827892
_cell_length_b	11.169417
_cell_length_c	11.169409
_cell_angle_alpha	89.980487
_cell_angle_beta	89.966914
_cell_angle_gamma	90.016641
loop_
_atom_site_label
_atom_site_type_symbol
_atom_site_fract_x
_atom_site_fract_y
_atom_site_fract_z
Zn1	Zn	-0.415914	1.834920	-0.678527
Zn2	Zn	-0.082580	2.168254	-0.345193
Zn3	Zn	0.250753	2.501587	-0.011860
Zn4	Zn	-0.590701	1.834792	-0.477841
Zn5	Zn	-0.257368	2.168125	-0.144507
Zn6	Zn	0.075966	2.501459	0.188826
Zn7	Zn	-0.415978	1.634206	-0.477862
Zn8	Zn	-0.082645	1.967539	-0.144529
Zn9	Zn	0.250688	2.300873	0.188805
Zn10	Zn	-0.590617	1.634196	-0.678487
Zn11	Zn	-0.257284	1.967529	-0.345153
Zn12	Zn	0.076050	2.300863	-0.011820
O13	O	-0.503303	1.734528	-0.578179
O14	O	-0.169969	2.067862	-0.244846
O15	O	0.163364	2.401195	0.088488
O16	O	-0.439108	2.002853	-0.651913
O17	O	-0.105774	2.336186	-0.318580
O18	O	0.227559	2.669520	0.014754
O19	O	-0.567586	1.808134	-0.309894
O20	O	-0.234253	2.141468	0.023440
O21	O	0.099081	2.474801	0.356773
O22	O	-0.269734	1.660889	-0.504506
O23	O	0.063600	1.994223	-0.171173
O24	O	0.396933	2.327556	0.162161
O25	O	-0.567523	2.002759	-0.504470
O26	O	-0.234190	2.336092	-0.171137
O27	O	0.099144	2.669425	0.162197
O28	O	-0.269686	1.808353	-0.651933
O29	O	0.063647	2.141686	-0.318600
O30	O	0.396981	2.475020	0.014733
O31	O	-0.439218	1.660765	-0.309909
O32	O	-0.105885	1.994098	0.023424
O33	O	0.227449	2.327431	0.356757
O34	O	-0.439137	1.466255	-0.504468
O35	O	-0.105803	1.799588	-0.171134
O36	O	0.227530	2.132922	0.162199
O37	O	-0.567380	1.660872	-0.846442
O38	O	-0.234047	1.994205	-0.513109
O39	O	0.099287	2.327538	-0.179775
O40	O	-0.567443	1.466248	-0.651866
O41	O	-0.234110	1.799581	-0.318532
O42	O	0.099224	2.132914	0.014801
O43	O	-0.439026	1.808343	-0.846471
O44	O	-0.105693	2.141676	-0.513138
O45	O	0.227641	2.475010	-0.179804
O46	O	-0.736926	1.808124	-0.504431
O47	O	-0.403593	2.141458	-0.171098
O48	O	-0.070259	2.474791	0.162235
O49	O	-0.736864	1.660747	-0.651845
O50	O	-0.403531	1.994081	-0.318512
O51	O	-0.070198	2.327414	0.014822
C52	C	-0.503288	1.422704	-0.578165
C53	C	-0.169955	1.756037	-0.244832
C54	C	0.163378	2.089370	0.088501
C55	C	-0.503308	1.289304	-0.578188
C56	C	-0.169974	1.622637	-0.244855
C57	C	0.163359	1.955970	0.088479
C58	C	-0.774812	1.734453	-0.578158
C59	C	-0.441479	2.067787	-0.244825
C60	C	-0.108146	2.401120	0.088509
C61	C	-0.890966	1.734531	-0.578189
C62	C	-0.557632	2.067864	-0.244856
C63	C	-0.224299	2.401198	0.088478
C64	C	-0.942746	1.807544	-0.505325
C65	C	-0.609413	2.140878	-0.171992
C66	C	-0.276080	2.474211	0.161342
C67	C	-1.062796	1.807626	-0.505355
C68	C	-0.729463	2.140960	-0.172022
C69	C	-0.396130	2.474293	0.161311
C70	C	-0.230732	1.734637	-0.578227
C71	C	0.102601	2.067970	-0.244893
C72	C	0.435934	2.401303	0.088440
C73	C	-0.114579	1.734683	-0.578247
C74	C	0.218754	2.068016	-0.244913
C75	C	0.552087	2.401349	0.088420
C76	C	-0.503186	1.734621	-0.891222
C77	C	-0.169853	2.067954	-0.557888
C78	C	0.163480	2.401287	-0.224555
C79	C	-0.503137	1.734660	-1.024622
C80	C	-0.169804	2.067993	-0.691288
C81	C	0.163530	2.401327	-0.357955
C82	C	-0.503317	2.047571	-0.578194
C83	C	-0.169984	2.380904	-0.244860
C84	C	0.163349	2.714237	0.088473
C85	C	-0.503324	2.180971	-0.578200
C86	C	-0.169990	2.514304	-0.244866
C87	C	0.163343	2.847637	0.088467
C88	C	-0.503343	1.734506	-0.266354
C89	C	-0.170009	2.067839	0.066979
C90	C	0.163324	2.401172	0.400312
C91	C	-0.503098	1.734699	-0.132955
C92	C	-0.169764	2.068032	0.200378
C93	C	0.163569	2.401366	0.533712
H94	H	-0.898203	1.869999	-0.442924
H95	H	-0.564870	2.203332	-0.109591
H96	H	-0.231537	2.536666	0.223742
H97	H	-1.107327	1.870133	-0.442971
H98	H	-0.773993	2.203466	-0.109637
H99	H	-0.440660	2.536799	0.223696
F100	F	-1.056386	1.652965	-0.659784
F101	F	-0.723052	1.986299	-0.326451
F102	F	-0.389719	2.319632	0.006882
H103	H	-0.935511	1.672087	-0.640598
H104	H	-0.602178	2.005421	-0.307264
H105	H	-0.268844	2.338754	0.026069
