data_functionalizedCrystal
_audit_creation_method	'MofGen! by Chris Wilmer'
_symmetry_space_group_name_H-M	'P1'
_symmetry_Int_Tables_number	1
_symmetry_cell_setting	triclinic
loop_
_symmetry_equiv_pos_as_xyz
  x,y,z
_cell_length_a	14.560438
_cell_length_b	18.426585
_cell_length_c	14.560438
_cell_angle_alpha	89.999322
_cell_angle_beta	59.997945
_cell_angle_gamma	60.007075
loop_
_atom_site_label
_atom_site_type_symbol
_atom_site_fract_x
_atom_site_fract_y
_atom_site_fract_z
Zr1	Zr	1.005255	0.699208	-0.120533
O2	O	1.196841	0.583350	-0.267175
O3	O	0.813667	0.734712	-0.075581
O4	O	1.005260	0.734730	-0.267182
O5	O	1.005246	0.583332	0.075568
O6	O	1.005266	0.854156	-0.267186
O7	O	1.005248	0.583332	-0.075573
O8	O	0.662542	0.854123	0.075553
O9	O	1.347970	0.583365	-0.267172
O10	O	0.892476	0.838995	-0.056410
O11	O	0.892469	0.749869	0.056387
O12	O	1.118045	0.749891	-0.169198
O13	O	1.118038	0.660765	-0.056401
Zr14	Zr	1.005261	0.889679	0.120513
Zr15	Zr	1.005265	0.889678	-0.120539
Zr16	Zr	1.005251	0.699208	0.120519
Zr17	Zr	1.246289	0.699231	-0.120529
Zr18	Zr	0.764228	0.889655	0.120510
O19	O	1.196850	0.854175	0.075562
O20	O	1.196855	0.854175	-0.267183
O21	O	1.196835	0.583350	0.075571
O22	O	0.813676	1.005536	0.267155
O23	O	0.813681	1.005536	-0.075590
O24	O	0.813661	0.734712	0.267164
O25	O	1.005271	1.005555	-0.075587
O26	O	1.005257	0.854156	0.267163
O27	O	1.005251	0.734731	0.267167
O28	O	1.005268	1.005555	0.075554
O29	O	1.347978	0.734763	-0.267177
O30	O	0.662538	0.854123	0.267158
O31	O	0.662547	1.005522	0.267153
O32	O	0.662550	1.005522	0.075549
O33	O	1.347967	0.583365	-0.075568
O34	O	1.347975	0.734763	-0.075573
O35	O	0.892472	0.838996	0.169179
O36	O	0.892479	0.928122	0.056382
O37	O	1.118048	0.839017	-0.056407
O38	O	1.118041	0.749891	0.056391
C39	C	0.703762	0.794414	-0.000014
C40	C	0.601437	0.794404	-0.000016
C41	C	0.470123	0.860212	0.083247
C42	C	0.373943	0.860250	0.083256
C43	C	0.540407	0.728668	-0.083271
C44	C	0.636584	0.728627	-0.083275
C45	C	0.434976	0.925989	0.166506
C46	C	0.303655	0.991803	0.249775
C47	C	0.207475	0.991841	0.249784
C48	C	0.242616	0.926064	0.166524
C49	C	1.005246	0.556194	-0.000002
C50	C	1.005241	0.475334	0.000001
C51	C	1.005280	0.179219	-0.000019
C52	C	1.005275	0.261605	-0.000017
C53	C	1.005261	0.327274	-0.000010
C54	C	1.005255	0.409665	-0.000006
C55	C	1.306754	0.794472	-0.000005
C56	C	1.409079	0.794482	-0.000003
C57	C	1.005263	0.794443	-0.301529
C58	C	1.005265	0.794443	-0.403862
C59	C	1.005271	1.032693	-0.000017
C60	C	1.005275	1.113553	-0.000020
C61	C	1.123008	0.747928	-0.510813
C62	C	1.123001	0.747930	-0.606961
C63	C	0.887500	0.840965	-0.489195
C64	C	0.887507	0.840967	-0.393049
C65	C	1.240765	0.701404	-0.521626
C66	C	1.358518	0.654884	-0.628581
C67	C	1.358511	0.654887	-0.724730
C68	C	1.240753	0.701409	-0.713923
C69	C	1.005253	0.794443	0.301510
C70	C	1.005251	0.794444	0.403843
C71	C	0.703775	1.032664	-0.000022
C72	C	0.601454	1.113513	-0.000026
C73	C	0.703757	0.794414	0.301505
C74	C	0.601430	0.794404	0.403836
C75	C	0.703770	1.032664	0.301497
C76	C	0.601447	1.113514	0.403826
C77	C	1.306747	0.556223	-0.301517
C78	C	1.409069	0.475373	-0.403845
C79	C	1.306742	0.556223	0.000003
C80	C	1.409062	0.475373	0.000007
C81	C	1.306760	0.794472	-0.301524
C82	C	1.409086	0.794482	-0.403856
C83	C	0.553402	1.104958	-0.058915
C84	C	0.457274	1.180918	-0.058941
C85	C	0.409194	1.265432	-0.000072
C86	C	0.457256	1.273985	0.058818
C87	C	0.553388	1.198026	0.058837
C88	C	0.553399	1.198013	0.393002
C89	C	0.457270	1.273987	0.489141
C90	C	0.409184	1.265461	0.596104
C91	C	0.457241	1.180953	0.606926
C92	C	0.553376	1.104980	0.510788
C93	C	1.457129	0.390874	-0.393021
C94	C	1.553288	0.314900	-0.489160
C95	C	1.601379	0.323426	-0.596123
C96	C	1.553316	0.407934	-0.606946
C97	C	1.457165	0.483906	-0.510807
C98	C	1.457125	0.483928	0.058885
C99	C	1.553279	0.407968	0.058885
C100	C	1.601363	0.323454	0.000013
C101	C	1.553296	0.314901	-0.058873
C102	C	1.457150	0.390860	-0.058879
C103	C	0.553354	0.840924	0.510788
C104	C	0.457212	0.840908	0.606935
C105	C	0.457228	0.747851	0.489165
C106	C	0.553375	0.747863	0.393021
C107	C	0.601409	0.887466	0.521604
C108	C	0.553331	0.933990	0.628560
C109	C	0.457190	0.933974	0.724708
C110	C	0.409126	0.887433	0.713898
H111	H	0.164292	0.926095	0.166545
C112	C	0.781033	0.656243	-0.174861
H113	H	0.833276	0.665636	-0.162930
H114	H	0.799502	0.658976	-0.246744
H115	H	0.799441	0.599455	-0.171395
C116	C	0.757976	0.892118	-0.477306
H117	H	0.687851	0.919825	-0.399838
H118	H	0.753087	0.851953	-0.512361
H119	H	0.753071	0.936148	-0.512370
C120	C	0.303428	1.349035	0.701846
H121	H	0.281696	1.400578	0.680070
H122	H	0.334926	1.349056	0.745354
H123	H	0.228401	1.349040	0.745339
H124	H	0.330850	0.887416	0.792193
C125	C	0.606200	0.985179	0.640449
H126	H	0.670335	0.978534	0.567872
H127	H	0.643705	0.962211	0.680402
H128	H	0.537167	1.046382	0.680398
C129	C	0.404342	1.171580	0.724586
H130	H	0.446727	1.110376	0.717275
H131	H	0.313571	1.199286	0.764535
H132	H	0.420114	1.199289	0.764531
C133	C	1.606130	0.221953	-0.477236
H134	H	1.563696	0.227763	-0.399762
H135	H	1.696896	0.190384	-0.512275
H136	H	1.590369	0.190377	-0.512299
C137	C	0.579054	0.656327	-0.174855
H138	H	0.502967	0.665782	-0.162934
H139	H	0.628989	0.599525	-0.171404
H140	H	0.629037	0.659059	-0.246738
H141	H	0.418085	0.709961	0.480375
C142	C	1.606214	0.417301	-0.724608
H143	H	1.670348	0.359948	-0.780305
H144	H	1.643727	0.448873	-0.733064
H145	H	1.537192	0.448850	-0.733051
H146	H	1.417979	0.383914	-0.305935
H147	H	0.592518	0.709984	0.305934
C148	C	1.240748	0.701412	-0.819686
H149	H	1.327737	0.667043	-0.884932
H150	H	1.197260	0.760681	-0.819695
H151	H	1.197259	0.676493	-0.819685
H152	H	1.679671	0.261557	-0.674396
C153	C	1.240771	0.701402	-0.415865
H154	H	1.153780	0.735764	-0.350619
H155	H	1.284270	0.726306	-0.415863
H156	H	1.284246	0.642127	-0.415857
C157	C	1.488044	0.603721	-0.640473
H158	H	1.558166	0.576027	-0.717943
H159	H	1.492945	0.559695	-0.605412
H160	H	1.492939	0.643886	-0.605418
C161	C	1.606122	0.417393	0.123674
H162	H	1.563693	0.478606	0.158749
H163	H	1.696889	0.389712	0.072869
H164	H	1.590357	0.389686	0.179396
C165	C	0.540767	0.925948	0.166503
H166	H	0.501032	0.974542	0.228016
H167	H	0.593294	0.931397	0.098078
H168	H	0.593231	0.871879	0.173432
C169	C	1.488029	0.603720	-0.842374
H170	H	1.558157	0.576009	-0.835038
H171	H	1.492935	0.643871	-0.882339
H172	H	1.492911	0.559692	-0.882319
H173	H	0.275053	1.045351	0.317568
C174	C	1.707117	0.239908	0.000032
H175	H	1.728840	0.257115	0.043541
H176	H	1.782139	0.205540	-0.074976
H177	H	1.675599	0.205534	0.031569
H178	H	0.330915	1.327275	-0.000096
C179	C	1.606188	0.221934	-0.123617
H180	H	1.670320	0.177928	-0.115163
H181	H	1.643702	0.215255	-0.201082
H182	H	1.537163	0.215258	-0.094526
H183	H	0.791631	0.878842	-0.305964
C184	C	0.063031	1.064229	0.341376
H185	H	0.055880	1.103398	0.390952
H186	H	0.022020	1.037223	0.382513
H187	H	0.022082	1.096742	0.307161
C188	C	0.404348	1.366953	0.123579
H189	H	0.340202	1.410959	0.115138
H190	H	0.473351	1.373643	0.094521
H191	H	0.366817	1.373617	0.201047
H192	H	0.418154	1.173936	-0.106896
C193	C	0.606280	1.012003	-0.123683
H194	H	0.563894	1.017800	-0.158764
H195	H	0.590519	0.980424	-0.072869
H196	H	0.697055	0.980445	-0.179398
H197	H	0.592500	1.205005	0.106798
C198	C	1.404273	0.381443	-0.123633
H199	H	1.340128	0.438781	-0.115216
H200	H	1.366779	0.349864	-0.094548
H201	H	1.473301	0.349881	-0.201097
C202	C	0.606281	1.207409	0.275355
H203	H	0.563896	1.268620	0.282694
H204	H	0.590519	1.179710	0.235395
H205	H	0.697056	1.179711	0.235404
C206	C	0.707165	0.887483	0.415848
H207	H	0.728908	0.921858	0.437604
H208	H	0.675658	0.912382	0.372345
H209	H	0.782189	0.828213	0.372359
C210	C	0.404308	0.985146	0.842353
H211	H	0.446695	1.012869	0.835019
H212	H	0.420063	0.944994	0.882315
H213	H	0.313534	1.029163	0.882300
C214	C	0.404411	1.366934	0.477217
H215	H	0.446806	1.361124	0.399743
H216	H	0.420175	1.398516	0.512259
H217	H	0.313636	1.398497	0.512277
H218	H	0.592484	1.036180	0.519617
H219	H	1.418035	0.552707	-0.519634
H220	H	1.417982	0.552737	0.106834
