data_functionalizedCrystal
_audit_creation_method	'MofGen! by Chris Wilmer'
_symmetry_space_group_name_H-M	'P1'
_symmetry_Int_Tables_number	1
_symmetry_cell_setting	triclinic
loop_
_symmetry_equiv_pos_as_xyz
  x,y,z
_cell_length_a	21.295417
_cell_length_b	21.295419
_cell_length_c	21.295120
_cell_angle_alpha	89.933046
_cell_angle_beta	89.638316
_cell_angle_gamma	90.045308
loop_
_atom_site_label
_atom_site_type_symbol
_atom_site_fract_x
_atom_site_fract_y
_atom_site_fract_z
Zn1	Zn	-0.248320	0.962621	-0.355923
Zn2	Zn	-0.354197	0.962445	-0.250645
Zn3	Zn	-0.248972	0.857265	-0.250665
Zn4	Zn	-0.353583	0.857313	-0.355880
O5	O	-0.301268	0.909911	-0.303278
O6	O	-0.262349	1.050687	-0.341968
O7	O	-0.340768	0.948399	-0.162555
O8	O	-0.160796	0.871295	-0.264654
O9	O	-0.340136	1.050557	-0.264620
O10	O	-0.160317	0.948699	-0.341987
O11	O	-0.263460	0.871124	-0.162570
O12	O	-0.262865	0.769182	-0.264612
O13	O	-0.339089	0.871376	-0.443979
O14	O	-0.339722	0.769218	-0.341914
O15	O	-0.261753	0.948745	-0.444010
O16	O	-0.442205	0.948445	-0.264579
O17	O	-0.441754	0.871205	-0.341895
C18	C	-0.301298	0.746359	-0.303261
C19	C	-0.301326	0.676391	-0.303268
C20	C	-0.464820	0.909828	-0.303244
C21	C	-0.534788	0.909851	-0.303250
C22	C	-0.260888	0.643614	-0.343605
C23	C	-0.260871	0.577872	-0.343608
C24	C	-0.301303	0.544909	-0.303280
C25	C	-0.341745	0.577693	-0.262935
C26	C	-0.341756	0.643435	-0.262929
N27	N	-0.356410	0.441630	-0.298360
N28	N	-0.356397	0.379178	-0.298369
C29	C	-0.301271	0.346834	-0.303293
N30	N	-0.246156	0.379301	-0.308221
N31	N	-0.246169	0.441758	-0.308215
C32	C	-0.301295	0.473623	-0.303281
C33	C	-0.260811	0.242772	-0.343635
C34	C	-0.260793	0.177028	-0.343633
C35	C	-0.341672	0.176851	-0.262964
C36	C	-0.341685	0.242593	-0.262962
C37	C	-0.301255	0.275550	-0.303302
C38	C	-0.567868	0.950105	-0.263032
C39	C	-0.633610	0.950135	-0.263047
C40	C	-0.666270	0.909899	-0.303271
C41	C	-0.633182	0.869641	-0.343496
C42	C	-0.567441	0.869617	-0.343485
N43	N	-0.769522	0.854835	-0.308064
N44	N	-0.831974	0.854860	-0.308071
C45	C	-0.864344	0.909969	-0.303307
N46	N	-0.831905	0.965054	-0.298525
N47	N	-0.769447	0.965029	-0.298515
C48	C	-0.737555	0.909920	-0.303288
C49	C	-0.968710	0.950259	-0.263103
C50	C	-1.034454	0.950290	-0.263122
C51	C	-1.034024	0.869790	-0.343568
C52	C	-0.968282	0.869765	-0.343553
C53	C	-0.935629	0.909999	-0.303317
C54	C	-0.137077	0.910011	-0.303327
C55	C	-0.067109	0.910054	-0.303348
C56	C	-0.300280	0.910086	-0.467474
C57	C	-0.299859	0.910160	-0.537445
C58	C	-0.301238	1.074101	-0.303296
C59	C	-0.301225	1.144069	-0.303304
C60	C	-0.302206	0.909773	-0.139721
C61	C	-0.302450	0.909821	-0.069751
C62	C	-0.261731	0.949824	-0.037411
C63	C	-0.261413	0.949871	0.028329
C64	C	-0.301807	0.909902	0.061728
C65	C	-0.342534	0.869896	0.029380
C66	C	-0.342856	0.869856	-0.036359
N67	N	-0.306541	0.854897	0.165101
N68	N	-0.306233	0.854938	0.227551
C69	C	-0.300843	0.910024	0.259796
N70	N	-0.295761	0.965068	0.227233
N71	N	-0.296067	0.965027	0.164778
C72	C	-0.301464	0.909942	0.133011
C73	C	-0.259777	0.950080	0.363420
C74	C	-0.259463	0.950128	0.429162
C75	C	-0.340581	0.870148	0.430211
C76	C	-0.340898	0.870106	0.364470
C77	C	-0.300493	0.910071	0.331079
H78	H	-0.227966	0.670444	-0.376452
H79	H	-0.374665	0.550851	-0.230099
F80	F	-0.384700	0.141773	-0.220039
F81	F	-0.218073	0.992449	0.062755
F82	F	-0.383578	0.827616	0.465751
H83	H	-0.228832	0.982370	-0.064595
H84	H	-0.374054	0.837529	0.338139
F85	F	-0.533120	0.992932	-0.220217
F86	F	-0.216126	0.992711	0.463580
F87	F	-0.668824	0.992980	-0.220240
H88	H	-0.659777	0.836882	-0.376249
F89	F	-0.217828	0.542981	-0.386541
H90	H	-0.540506	0.836837	-0.376236
F91	F	-0.384796	0.678319	-0.219993
F92	F	-0.386197	0.827277	-0.070779
F93	F	-0.217779	0.277849	-0.386563
F94	F	-0.933957	0.993078	-0.220281
H95	H	-0.375425	0.837355	0.056577
H96	H	-1.061387	0.983073	-0.230374
F97	F	-0.216766	0.992605	0.327880
F98	F	-1.068778	0.826971	-0.386383
F99	F	-0.384723	0.277478	-0.220028
F100	F	-0.933074	0.826918	-0.386356
H101	H	-0.227859	0.150342	-0.376480
