data_functionalizedCrystal
_audit_creation_method	'MofGen! by Chris Wilmer'
_symmetry_space_group_name_H-M	'P1'
_symmetry_Int_Tables_number	1
_symmetry_cell_setting	triclinic
loop_
_symmetry_equiv_pos_as_xyz
  x,y,z
_cell_length_a	14.853569
_cell_length_b	13.930277
_cell_length_c	13.262508
_cell_angle_alpha	74.086216
_cell_angle_beta	95.949530
_cell_angle_gamma	89.995143
loop_
_atom_site_label
_atom_site_type_symbol
_atom_site_fract_x
_atom_site_fract_y
_atom_site_fract_z
O1	O	-1.196730	0.043994	0.137042
O2	O	-0.934314	0.039746	0.153364
O3	O	-1.072128	0.081757	-0.007576
O4	O	-1.058916	0.001983	0.297981
O5	O	-1.072109	-0.077904	-0.007579
O6	O	-0.934295	-0.119915	0.153360
O7	O	-1.196711	-0.115667	0.137039
Zn8	Zn	-1.065500	-0.143141	0.145199
Zn9	Zn	-1.065525	0.067219	0.145203
O10	O	-1.058897	-0.157678	0.297978
C11	C	-0.900714	-0.039890	0.152622
C12	C	-0.800625	-0.039306	0.150405
N13	N	-1.065489	-0.286706	0.145195
C14	C	-0.763992	-0.014071	0.053763
C15	C	-0.743209	-0.064000	0.244963
C16	C	-0.649169	-0.063457	0.242883
C17	C	-0.612537	-0.038223	0.146241
C18	C	-0.669944	-0.013531	0.051679
C19	C	-0.591755	-0.088158	0.337443
C20	C	-0.497710	-0.087618	0.335367
C21	C	-0.461075	-0.062376	0.238724
C22	C	-0.518489	-0.037682	0.144158
C23	C	-0.481856	-0.012448	0.047516
C24	C	-0.539268	0.012253	-0.047050
C25	C	-0.633310	0.011711	-0.044964
C26	C	-0.367034	-0.061834	0.236637
C27	C	-0.387808	-0.011907	0.045433
C28	C	-1.004499	-0.757572	0.216439
C29	C	-1.126577	-0.720349	0.073959
C30	C	-1.126566	-0.619853	0.073956
C31	C	-1.065522	-0.588212	0.145196
C32	C	-1.004488	-0.657068	0.216440
C33	C	-1.187604	-0.550992	0.002721
C34	C	-1.187597	-0.450489	0.002715
C35	C	-1.126547	-0.418845	0.073952
C36	C	-1.065511	-0.487707	0.145197
C37	C	-1.004467	-0.456066	0.216438
C38	C	-0.943425	-0.524926	0.287680
C39	C	-0.943439	-0.625424	0.287677
C40	C	-1.126534	-0.318347	0.073955
C41	C	-1.004456	-0.355562	0.216439
C42	C	-0.230311	-0.036027	0.137780
C43	C	-0.330401	-0.036599	0.139995
C44	C	-1.071380	0.012137	-0.046682
C45	C	-1.069167	0.042564	-0.163200
N46	N	-1.065543	0.210787	0.145199
C47	C	-1.062884	-0.219805	-0.491666
C48	C	-1.064956	-0.248393	-0.382190
C49	C	-1.066009	-0.175656	-0.327437
C50	C	-1.064990	-0.074326	-0.382171
C51	C	-1.062911	-0.045735	-0.491656
C52	C	-1.066036	-0.001587	-0.327427
C53	C	-1.065016	0.099743	-0.382161
C54	C	-1.062938	0.128329	-0.491635
C55	C	-1.061885	0.055593	-0.546388
C56	C	-1.068115	-0.030178	-0.217942
C57	C	-1.068141	0.143892	-0.217932
C58	C	-1.066070	0.172480	-0.327408
C59	C	-1.059646	-0.088057	0.337084
C60	C	-1.061858	-0.118477	0.453602
H61	H	-0.357990	0.008647	-0.033265
H62	H	-1.237309	-0.576759	-0.055276
C63	C	-1.069096	0.222782	-0.158366
C64	C	-0.992809	0.208369	-0.083832
C65	C	-0.993638	0.281018	-0.028933
H66	H	-1.068124	0.287258	-0.206535
H67	H	-1.122376	0.217351	-0.123497
H68	H	-0.939542	0.213809	-0.118699
H69	H	-0.993765	0.143908	-0.035641
H70	H	-1.046918	0.275587	0.005936
H71	H	-0.992668	0.345489	-0.077111
H72	H	-0.941883	0.271243	0.021650
C73	C	-1.192941	-0.754511	-0.003442
C74	C	-1.246398	-0.672700	-0.065823
C75	C	-1.307547	-0.704135	-0.137137
H76	H	-1.160449	-0.782276	-0.047295
H77	H	-1.230667	-0.803558	0.034358
H78	H	-1.208677	-0.623671	-0.103619
H79	H	-1.278910	-0.644926	-0.021999
H80	H	-1.345273	-0.753182	-0.099337
H81	H	-1.275048	-0.731900	-0.180982
H82	H	-1.343830	-0.648634	-0.179464
H83	H	-0.509429	0.032805	-0.125737
H84	H	-1.068936	-0.112682	-0.173387
H85	H	-1.062100	0.210839	-0.536195
H86	H	-1.176237	-0.262287	0.015955
H87	H	-1.065239	0.254985	-0.371987
H88	H	-1.067694	-0.198939	-0.238297
H89	H	-0.680062	0.031819	-0.121955
C90	C	-0.782804	-0.091473	0.349990
C91	C	-0.712399	-0.113003	0.432357
C92	C	-0.748843	-0.138327	0.529127
H93	H	-0.819051	-0.037101	0.354929
H94	H	-0.819028	-0.148437	0.354830
H95	H	-0.676190	-0.056045	0.427520
H96	H	-0.676147	-0.167380	0.427453
H97	H	-0.785066	-0.195291	0.533966
H98	H	-0.785089	-0.083950	0.534054
H99	H	-0.701079	-0.152946	0.585023
C100	C	-1.253755	-0.375826	-0.074919
C101	C	-1.238632	-0.373495	-0.178014
C102	C	-1.299547	-0.304756	-0.249612
H103	H	-1.314004	-0.395238	-0.063570
H104	H	-1.245073	-0.311357	-0.064912
H105	H	-1.247321	-0.437950	-0.188016
H106	H	-1.178395	-0.354072	-0.189396
H107	H	-1.290866	-0.240287	-0.239605
H108	H	-1.359793	-0.324175	-0.238253
H109	H	-1.289289	-0.303159	-0.319570
C110	C	-0.826275	0.012953	-0.048939
C111	C	-0.809680	0.110295	-0.107097
C112	C	-0.867047	0.135230	-0.201704
H113	H	-0.815186	-0.032278	-0.088693
H114	H	-0.887545	0.009085	-0.033905
H115	H	-0.748425	0.114155	-0.122134
H116	H	-0.820775	0.155548	-0.067375
H117	H	-0.928316	0.131362	-0.186671
H118	H	-0.855953	0.089993	-0.241449
H119	H	-0.855801	0.201281	-0.241172
C120	C	-1.066126	-0.358449	-0.322968
C121	C	-1.064792	-0.416029	-0.394351
C122	C	-1.065891	-0.517421	-0.339836
H123	H	-1.014446	-0.375435	-0.272326
H124	H	-1.119472	-0.371186	-0.288219
H125	H	-1.011452	-0.403298	-0.429082
H126	H	-1.116469	-0.399074	-0.444994
H127	H	-1.119237	-0.530158	-0.305087
H128	H	-1.014210	-0.534397	-0.289196
H129	H	-1.064995	-0.556501	-0.388262
C130	C	-0.435532	-0.114407	0.438148
C131	C	-0.487744	-0.136599	0.523227
C132	C	-0.430496	-0.161265	0.617924
H133	H	-0.398388	-0.170932	0.441458
H134	H	-0.398434	-0.059547	0.441371
H135	H	-0.524826	-0.191454	0.520005
H136	H	-0.524886	-0.080087	0.519952
H137	H	-0.393398	-0.106404	0.621147
H138	H	-0.393354	-0.217787	0.621223
H139	H	-0.465913	-0.176316	0.675661
H140	H	-0.320293	-0.081953	0.313632
C141	C	-0.938137	-0.321417	0.293907
C142	C	-0.884702	-0.403237	0.356307
C143	C	-0.823609	-0.371824	0.427691
H144	H	-0.900384	-0.272368	0.256193
H145	H	-0.970701	-0.293670	0.337730
H146	H	-0.852141	-0.430969	0.312489
H147	H	-0.922431	-0.452294	0.394044
H148	H	-0.856173	-0.344077	0.471515
H149	H	-0.785862	-0.322774	0.389969
H150	H	-0.787352	-0.427335	0.470045
H151	H	-0.621589	-0.108709	0.416124
C152	C	-0.877278	-0.700348	0.364980
C153	C	-0.890375	-0.795137	0.349752
C154	C	-0.829456	-0.864188	0.420956
H155	H	-0.817026	-0.681023	0.353526
H156	H	-0.887334	-0.702225	0.435072
H157	H	-0.880311	-0.793257	0.279676
H158	H	-0.950614	-0.814493	0.361215
H159	H	-0.839513	-0.866066	0.491048
H160	H	-0.769208	-0.844854	0.409496
H161	H	-0.838340	-0.928512	0.410640
H162	H	-1.062020	-0.279016	-0.536254
H163	H	-0.893726	-0.499154	0.345689
H164	H	-0.954797	-0.813639	0.274441
H165	H	-1.060203	0.078865	-0.635533
