data_functionalizedCrystal
_audit_creation_method	'MofGen! by Chris Wilmer'
_symmetry_space_group_name_H-M	'P1'
_symmetry_Int_Tables_number	1
_symmetry_cell_setting	triclinic
loop_
_symmetry_equiv_pos_as_xyz
  x,y,z
_cell_length_a	21.295417
_cell_length_b	21.295420
_cell_length_c	13.897441
_cell_angle_alpha	90.022920
_cell_angle_beta	90.032897
_cell_angle_gamma	90.025274
loop_
_atom_site_label
_atom_site_type_symbol
_atom_site_fract_x
_atom_site_fract_y
_atom_site_fract_z
Zn1	Zn	0.250633	-0.962350	-0.545422
Zn2	Zn	0.750633	-0.462350	-0.045422
Zn3	Zn	0.355912	-0.962263	-0.384117
Zn4	Zn	0.855912	-0.462263	0.115883
Zn5	Zn	0.250655	-0.857079	-0.384134
Zn6	Zn	0.750655	-0.357079	0.115866
Zn7	Zn	0.355863	-0.857048	-0.545363
Zn8	Zn	0.855863	-0.357048	-0.045363
O9	O	0.303266	-0.909685	-0.464759
O10	O	0.803266	-0.409685	0.035241
O11	O	0.264609	-1.050428	-0.524042
O12	O	0.764609	-0.550428	-0.024042
O13	O	0.341979	-0.948286	-0.249137
O14	O	0.841979	-0.448286	0.250863
O15	O	0.162563	-0.871093	-0.405561
O16	O	0.662563	-0.371093	0.094439
O17	O	0.341957	-1.050364	-0.405532
O18	O	0.841957	-0.550364	0.094468
O19	O	0.162546	-0.948436	-0.524059
O20	O	0.662546	-0.448436	-0.024059
O21	O	0.264648	-0.871007	-0.249150
O22	O	0.764648	-0.371007	0.250850
O23	O	0.264601	-0.768985	-0.405504
O24	O	0.764601	-0.268985	0.094496
O25	O	0.341874	-0.871041	-0.680353
O26	O	0.841874	-0.371041	-0.180353
O27	O	0.341896	-0.768963	-0.523959
O28	O	0.841896	-0.268963	-0.023959
O29	O	0.264562	-0.948406	-0.680396
O30	O	0.764562	-0.448406	-0.180396
O31	O	0.443994	-0.948256	-0.405475
O32	O	0.943994	-0.448256	0.094525
O33	O	0.443959	-0.870955	-0.523942
O34	O	0.943959	-0.370955	-0.023942
C35	C	0.303246	-0.746133	-0.464728
C36	C	0.803246	-0.246133	0.035272
C37	C	0.303253	-0.676165	-0.464737
C38	C	0.803253	-0.176165	0.035263
C39	C	0.343577	-0.176712	-0.526361
C40	C	0.843577	0.323288	-0.026361
C41	C	0.343578	-0.242455	-0.526353
C42	C	0.843578	0.257545	-0.026353
C43	C	0.303271	-0.275326	-0.464775
C44	C	0.803271	0.224674	0.035225
C45	C	0.262970	-0.242449	-0.403183
C46	C	0.762970	0.257551	0.096817
C47	C	0.262975	-0.176708	-0.403186
C48	C	0.762975	0.323292	0.096814
N49	N	0.248156	-0.378564	-0.457520
N50	N	0.748156	0.121436	0.042480
N51	N	0.248153	-0.441016	-0.457522
N52	N	0.748153	0.058984	0.042478
C53	C	0.303256	-0.473400	-0.464759
C54	C	0.803256	0.026600	0.035241
N55	N	0.358362	-0.440975	-0.472012
N56	N	0.858362	0.059025	0.027988
N57	N	0.358364	-0.378517	-0.472014
N58	N	0.858364	0.121483	0.027986
C59	C	0.303262	-0.346611	-0.464763
C60	C	0.803262	0.153389	0.035237
C61	C	0.343558	-0.577555	-0.526332
C62	C	0.843558	-0.077555	-0.026332
C63	C	0.343560	-0.643299	-0.526317
C64	C	0.843560	-0.143299	-0.026317
C65	C	0.262947	-0.643292	-0.403152
C66	C	0.762947	-0.143292	0.096848
C67	C	0.262950	-0.577549	-0.403162
C68	C	0.762950	-0.077549	0.096838
C69	C	0.303255	-0.544685	-0.464758
C70	C	0.803255	-0.044685	0.035242
C71	C	0.466817	-0.909610	-0.464721
C72	C	0.966817	-0.409610	0.035279
C73	C	0.536785	-0.909635	-0.464737
C74	C	1.036785	-0.409635	0.035263
C75	C	1.036241	-0.950081	-0.403265
C76	C	1.536241	-0.450081	0.096735
C77	C	0.970498	-0.950057	-0.403239
C78	C	1.470498	-0.450057	0.096761
C79	C	0.937625	-0.909768	-0.464858
C80	C	1.437625	-0.409768	0.035142
C81	C	0.970499	-0.869489	-0.526490
C82	C	1.470499	-0.369489	-0.026490
C83	C	1.036240	-0.869509	-0.526507
C84	C	1.536240	-0.369509	-0.026507
N85	N	0.834367	-0.904878	-0.549258
N86	N	1.334367	-0.404878	-0.049258
N87	N	0.771916	-0.904862	-0.549238
N88	N	1.271916	-0.404862	-0.049238
C89	C	0.739550	-0.909704	-0.464808
C90	C	1.239550	-0.409704	0.035192
N91	N	0.771995	-0.914575	-0.380395
N92	N	1.271995	-0.414575	0.119605
N93	N	0.834452	-0.914594	-0.380415
N94	N	1.334452	-0.414594	0.119585
C95	C	0.866339	-0.909742	-0.464845
C96	C	1.366339	-0.409742	0.035155
C97	C	0.635398	-0.949953	-0.403146
C98	C	1.135398	-0.449953	0.096854
C99	C	0.569654	-0.949925	-0.403119
C100	C	1.069654	-0.449925	0.096881
C101	C	0.569656	-0.869360	-0.526378
C102	C	1.069656	-0.369360	-0.026378
C103	C	0.635399	-0.869385	-0.526397
C104	C	1.135399	-0.369385	-0.026397
C105	C	0.668266	-0.909685	-0.464783
C106	C	1.168266	-0.409685	0.035217
C107	C	1.139075	-0.909775	-0.464831
C108	C	1.639075	-0.409775	0.035169
C109	C	1.069107	-0.909809	-0.464893
C110	C	1.569107	-0.409809	0.035107
C111	C	0.303282	-0.073875	-0.464785
C112	C	0.803282	0.426125	0.035215
C113	C	0.303279	-0.143843	-0.464782
C114	C	0.803279	0.356157	0.035218
C115	C	0.303210	-0.909730	-0.716352
C116	C	0.803210	-0.409730	-0.216352
C117	C	0.303186	-0.909749	-0.823566
C118	C	0.803186	-0.409749	-0.323566
C119	C	0.303144	-0.909766	-1.019862
C120	C	0.803144	-0.409766	-0.519862
C121	C	0.303169	-0.909754	-0.910629
C122	C	0.803169	-0.409754	-0.410629
C123	C	0.303276	-0.909677	-0.214145
C124	C	0.803276	-0.409677	0.285855
C125	C	0.303122	-0.909780	-0.106931
C126	C	0.803122	-0.409780	0.393069
H127	H	0.376398	-0.149958	-0.576514
H128	H	0.876398	0.350042	-0.076514
H129	H	0.230134	-0.550787	-0.353021
H130	H	0.730134	-0.050787	0.146979
O131	O	0.938539	-0.830444	-0.586452
O132	O	1.438539	-0.330444	-0.086452
C133	C	0.900445	-0.866250	-0.648781
C134	C	1.400445	-0.366250	-0.148781
H135	H	0.920220	-0.915831	-0.654819
H136	H	1.420220	-0.415831	-0.154819
H137	H	0.899679	-0.843454	-0.722979
H138	H	1.399679	-0.343454	-0.222979
H139	H	0.850634	-0.868417	-0.618947
H140	H	1.350634	-0.368417	-0.118947
H141	H	0.542891	-0.836554	-0.576546
H142	H	1.042891	-0.336554	-0.076546
H143	H	0.376377	-0.550795	-0.576486
H144	H	0.876377	-0.050795	-0.076486
O145	O	1.068059	-0.989342	-0.343458
O146	O	1.568059	-0.489342	0.156542
C147	C	1.051896	-1.052046	-0.364712
C148	C	1.551896	-0.552046	0.135288
H149	H	1.004158	-1.053262	-0.401826
H150	H	1.504158	-0.553262	0.098174
H151	H	1.049604	-1.080321	-0.295164
H152	H	1.549604	-0.580321	0.204836
H153	H	1.088854	-1.073260	-0.414328
H154	H	1.588854	-0.573260	0.085672
H155	H	0.943734	-0.982852	-0.353052
H156	H	1.443734	-0.482852	0.146948
O157	O	1.068267	-0.830411	-0.586291
O158	O	1.568267	-0.330411	-0.086291
C159	C	1.133340	-0.839084	-0.573116
C160	C	1.633340	-0.339084	-0.073116
H161	H	1.142340	-0.859731	-0.498709
H162	H	1.642340	-0.359731	0.001291
H163	H	1.158361	-0.791939	-0.579598
H164	H	1.658361	-0.291939	-0.079598
H165	H	1.151939	-0.872593	-0.630386
H166	H	1.651939	-0.372593	-0.130386
O167	O	0.667231	-0.830249	-0.586362
O168	O	1.167231	-0.330249	-0.086362
C169	C	0.624122	-0.794671	-0.640728
C170	C	1.124122	-0.294671	-0.140728
H171	H	0.577238	-0.820439	-0.644094
H172	H	1.077238	-0.320439	-0.144094
H173	H	0.643085	-0.787934	-0.716722
H174	H	1.143085	-0.287934	-0.216722
H175	H	0.617184	-0.746874	-0.605331
H176	H	1.117184	-0.246874	-0.105331
H177	H	0.230153	-0.269217	-0.353044
H178	H	0.730153	0.230783	0.146956
O179	O	0.382654	-0.274365	-0.586317
O180	O	0.882654	0.225635	-0.086317
C181	C	0.368973	-0.258321	-0.682488
C182	C	0.868973	0.241679	-0.182488
H183	H	0.318691	-0.240264	-0.687481
H184	H	0.818691	0.259736	-0.187481
H185	H	0.374419	-0.301568	-0.730125
H186	H	0.874419	0.198432	-0.230125
H187	H	0.402746	-0.220160	-0.707623
H188	H	0.902746	0.279840	-0.207623
O189	O	0.223766	-0.144873	-0.343339
O190	O	0.723766	0.355127	0.156661
C191	C	0.188202	-0.187980	-0.288962
C192	C	0.688202	0.312020	0.211038
H193	H	0.186050	-0.234856	-0.328470
H194	H	0.686050	0.265144	0.171530
H195	H	0.138598	-0.169001	-0.278807
H196	H	0.638598	0.330999	0.221193
H197	H	0.211198	-0.194938	-0.215642
H198	H	0.711198	0.305062	0.284358
O199	O	0.223705	-0.675146	-0.343382
O200	O	0.723705	-0.175146	0.156618
C201	C	0.160981	-0.659126	-0.364647
C202	C	0.660981	-0.159126	0.135353
H203	H	0.159706	-0.611405	-0.401734
H204	H	0.659706	-0.111405	0.098266
H205	H	0.132702	-0.656867	-0.295107
H206	H	0.632702	-0.156867	0.204893
H207	H	0.139815	-0.696149	-0.414292
H208	H	0.639815	-0.196149	0.085708
H209	H	0.376379	-0.670059	-0.576460
H210	H	0.876379	-0.170059	-0.076460
H211	H	0.662160	-0.982767	-0.352975
H212	H	1.162160	-0.482767	0.147025
H213	H	0.542894	-0.982718	-0.352928
H214	H	1.042894	-0.482718	0.147072
