data_functionalizedCrystal
_audit_creation_method	'MofGen! by Chris Wilmer'
_symmetry_space_group_name_H-M	'P1'
_symmetry_Int_Tables_number	1
_symmetry_cell_setting	triclinic
loop_
_symmetry_equiv_pos_as_xyz
  x,y,z
_cell_length_a	12.759395
_cell_length_b	21.395361
_cell_length_c	21.395355
_cell_angle_alpha	89.978489
_cell_angle_beta	89.978919
_cell_angle_gamma	90.030554
loop_
_atom_site_label
_atom_site_type_symbol
_atom_site_fract_x
_atom_site_fract_y
_atom_site_fract_z
Zn1	Zn	1.606169	-0.249514	-0.354190
Zn2	Zn	1.606005	-0.354274	-0.249407
Zn3	Zn	1.430462	-0.249514	-0.249433
Zn4	Zn	1.430410	-0.354257	-0.354154
O5	O	1.518262	-0.301889	-0.301796
O6	O	1.753168	-0.263417	-0.340295
O7	O	1.582672	-0.340384	-0.161733
O8	O	1.453860	-0.161836	-0.263356
O9	O	1.753048	-0.340384	-0.263311
O10	O	1.582951	-0.161836	-0.340320
O11	O	1.453701	-0.263417	-0.161752
O12	O	1.283434	-0.263401	-0.263320
O13	O	1.453772	-0.340356	-0.441837
O14	O	1.283396	-0.340356	-0.340258
O15	O	1.582901	-0.263401	-0.441863
O16	O	1.582622	-0.441949	-0.263276
O17	O	1.453613	-0.441937	-0.340233
C18	C	1.245294	-0.301877	-0.301789
C19	C	1.128517	-0.301887	-0.301800
C20	C	1.518123	-0.464677	-0.301761
C21	C	1.518160	-0.534318	-0.301767
C22	C	1.585394	-0.567017	-0.261737
C23	C	1.585443	-0.632452	-0.261751
C24	C	1.518239	-0.665187	-0.301789
C25	C	1.450999	-0.632480	-0.341827
C26	C	1.450960	-0.567046	-0.341816
C27	C	1.423641	-0.768902	-0.306702
C28	C	1.423678	-0.834335	-0.306709
C29	C	1.518361	-0.867007	-0.301826
C30	C	1.613009	-0.834239	-0.296923
C31	C	1.612969	-0.768805	-0.296912
C32	C	1.518274	-0.736139	-0.301805
C33	C	1.585654	-0.970659	-0.261808
C34	C	1.585705	-1.036095	-0.261827
C35	C	1.451252	-1.036122	-0.341899
C36	C	1.451211	-0.970686	-0.341884
C37	C	1.518410	-0.937959	-0.301835
C38	C	1.128623	-0.221871	-0.382093
C39	C	1.073815	-0.181871	-0.422244
C40	C	0.964094	-0.181882	-0.422252
C41	C	0.909177	-0.221896	-0.382103
C42	C	0.963985	-0.261897	-0.341951
C43	C	1.073709	-0.261882	-0.341949
C44	C	0.963880	-0.341908	-0.261657
C45	C	1.073601	-0.341901	-0.261651
C46	C	0.908963	-0.381923	-0.221507
C47	C	0.963771	-0.421927	-0.181358
C48	C	1.073500	-0.421915	-0.181353
C49	C	1.128409	-0.381901	-0.221500
C50	C	1.792295	-0.301902	-0.301804
C51	C	1.909072	-0.301908	-0.301808
C52	C	1.518349	-0.301877	-0.465220
C53	C	1.518386	-0.301871	-0.534861
C54	C	1.518429	-0.138466	-0.301845
C55	C	1.518501	-0.068825	-0.301866
C56	C	1.585621	-0.261799	-0.567589
C57	C	1.585619	-0.261773	-0.633024
C58	C	1.518394	-0.301829	-0.665729
C59	C	1.451146	-0.341903	-0.632993
C60	C	1.451142	-0.341925	-0.567559
C61	C	1.510050	-0.358244	-0.769392
C62	C	1.510062	-0.358224	-0.834825
C63	C	1.518401	-0.301762	-0.867550
C64	C	1.526750	-0.245320	-0.834834
C65	C	1.526746	-0.245341	-0.769400
C66	C	1.518391	-0.301810	-0.736682
C67	C	1.585637	-0.261658	-0.971231
C68	C	1.585629	-0.261630	-1.036667
C69	C	1.451161	-0.341766	-1.036635
C70	C	1.451165	-0.341789	-0.971200
C71	C	1.518408	-0.301735	-0.938501
C72	C	1.518235	-0.301857	-0.139009
C73	C	1.518402	-0.301686	-0.069368
H74	H	1.640115	-0.540372	-0.229128
O75	O	1.133050	-0.138716	-0.465546
H76	H	1.112018	-0.089527	-0.454892
H77	H	1.690109	-0.860840	-0.292947
H78	H	1.396387	-0.374555	-0.540912
H79	H	1.503270	-0.404183	-0.861458
O80	O	1.378421	-0.531772	-0.384982
H81	H	1.331687	-0.565524	-0.412822
O82	O	1.501042	-0.419144	-0.734097
H83	H	1.495249	-0.458387	-0.767837
H84	H	0.919469	-0.149307	-0.454943
H85	H	1.217750	-0.381884	-0.221496
O86	O	1.321596	-0.869672	-0.311993
H87	H	1.337526	-0.920661	-0.311171
H88	H	1.640376	-0.944011	-0.229200
O89	O	1.378663	-0.935419	-0.385048
H90	H	1.396630	-0.947944	-0.434236
O91	O	0.790621	-0.381934	-0.221509
H92	H	0.761714	-0.394681	-0.268740
H93	H	1.640377	-0.228995	-1.063314
H94	H	1.640374	-0.229184	-0.540970
H95	H	1.640197	-0.659081	-0.229154
H96	H	1.217964	-0.221855	-0.382088
O97	O	1.658147	-0.218556	-0.668337
H98	H	1.704910	-0.190712	-0.634606
O99	O	0.790835	-0.221903	-0.382101
H100	H	0.761921	-0.234644	-0.429332
O101	O	1.715044	-0.733459	-0.291634
H102	H	1.780895	-0.767166	-0.288245
O103	O	1.658228	-1.071371	-0.218653
H104	H	1.640229	-1.058857	-0.169466
O105	O	1.378759	-1.071417	-0.385083
H106	H	1.390075	-1.122412	-0.378363
H107	H	1.396283	-0.659137	-0.374427
O108	O	0.904546	-0.465080	-0.138056
H109	H	0.819043	-0.458367	-0.144806
H110	H	1.346533	-0.742306	-0.310681
O111	O	1.378650	-0.384972	-1.071899
H112	H	1.389950	-0.378227	-1.122898
H113	H	1.533542	-0.199384	-0.742765
H114	H	1.118118	-0.454486	-0.148654
H115	H	1.533542	-0.199344	-0.861477
H116	H	1.640385	-0.229041	-0.944606
O117	O	1.378619	-0.384993	-0.935893
H118	H	1.331863	-0.412838	-0.969626
H119	H	1.396408	-0.374515	-0.659626
