data_functionalizedCrystal
_audit_creation_method	'MofGen! by Chris Wilmer'
_symmetry_space_group_name_H-M	'P1'
_symmetry_Int_Tables_number	1
_symmetry_cell_setting	triclinic
loop_
_symmetry_equiv_pos_as_xyz
  x,y,z
_cell_length_a	15.995343
_cell_length_b	15.995350
_cell_length_c	15.072220
_cell_angle_alpha	89.998899
_cell_angle_beta	90.008177
_cell_angle_gamma	83.490779
loop_
_atom_site_label
_atom_site_type_symbol
_atom_site_fract_x
_atom_site_fract_y
_atom_site_fract_z
O1	O	1.111000	0.107890	0.073689
O2	O	0.867224	0.121224	0.073710
O3	O	0.995776	-0.007331	0.073698
O4	O	0.982448	0.236445	0.073701
O5	O	0.995744	-0.007324	-0.073867
O6	O	0.867192	0.121231	-0.073855
O7	O	1.110968	0.107897	-0.073876
Zn8	Zn	0.989075	0.114565	-0.097295
Zn9	Zn	0.989117	0.114556	0.097129
O10	O	0.982416	0.236452	-0.073864
C11	C	0.836013	0.120678	-0.000070
C12	C	0.743062	0.119028	-0.000062
C13	C	0.572876	0.116035	-0.000074
C14	C	0.549530	0.023238	-0.000075
C15	C	0.452852	0.021492	-0.000415
C16	C	0.405316	0.113086	-0.000085
C17	C	0.434389	0.159750	-0.084183
C18	C	0.531182	0.160851	-0.084249
C19	C	0.531129	0.162201	0.083566
C20	C	0.434634	0.158776	0.084666
C21	C	0.310618	0.111425	-0.000094
C22	C	0.667574	0.117699	-0.000071
C23	C	0.995209	-0.038522	-0.000083
C24	C	0.993557	-0.131472	-0.000078
C25	C	0.987625	-0.469220	-0.000080
C26	C	0.896073	-0.421783	0.000259
C27	C	0.897725	-0.325093	-0.000074
C28	C	0.990567	-0.301659	-0.000078
C29	C	1.035706	-0.342734	-0.084348
C30	C	1.033406	-0.439369	-0.084418
C31	C	1.035333	-0.439736	0.083391
C32	C	1.035312	-0.342790	0.084505
C33	C	0.992235	-0.206962	-0.000080
C34	C	0.985960	-0.563917	-0.000084
C35	C	1.142179	0.108444	-0.000094
C36	C	1.235130	0.110093	-0.000097
C37	C	0.982983	0.267643	-0.000082
C38	C	0.984635	0.360594	-0.000081
N39	N	0.989053	0.114571	-0.229984
C40	C	0.989115	0.114553	-0.589185
C41	C	0.920099	0.183109	-0.551572
C42	C	0.920257	0.183360	-0.448746
C43	C	0.989083	0.114562	-0.410981
C44	C	1.076449	0.133641	-0.448280
C45	C	1.076062	0.134128	-0.551138
C46	C	0.971546	0.026714	-0.551285
C47	C	0.969541	0.027300	-0.448421
C48	C	0.989071	0.114565	-0.310268
C49	C	0.989133	0.114551	-0.689899
N50	N	0.989146	0.114543	0.229817
H51	H	0.862241	-0.296673	0.060334
H52	H	0.401678	0.225608	0.090006
H53	H	0.545142	0.230506	0.084378
H54	H	1.100622	-0.471619	-0.088244
N55	N	0.585883	-0.021143	-0.075616
N56	N	0.628910	0.015275	-0.129453
H57	H	0.654587	-0.016066	-0.182806
N58	N	0.429009	-0.024354	0.075181
N59	N	0.392625	-0.088825	0.064848
H60	H	0.375792	-0.121212	0.118238
H61	H	0.559412	0.132921	0.147330
H62	H	1.129023	0.086164	-0.576017
H63	H	1.005414	-0.460278	0.147262
N64	N	1.095462	0.214491	-0.581246
N65	N	1.098677	0.229384	-0.662511
H66	H	1.112374	0.286144	-0.683773
H67	H	1.103914	-0.328610	-0.087485
N68	N	0.850189	-0.445049	0.076068
N69	N	0.838193	-0.520160	0.087546
H70	H	0.805790	-0.536598	0.141090
H71	H	0.861977	-0.297224	-0.060579
H72	H	0.931163	0.247926	-0.577411
N73	N	0.584677	-0.021880	0.075577
N74	N	0.627346	0.013825	0.130377
H75	H	0.652173	-0.018039	0.183810
N76	N	0.996338	-0.307122	-0.163008
N77	N	0.935048	-0.251503	-0.157225
H78	H	0.907239	-0.226352	-0.212777
H79	H	1.002310	-0.315544	0.146845
N80	N	1.120242	-0.323503	0.090887
N81	N	1.149307	-0.278934	0.032939
H82	H	1.209291	-0.265308	0.037442
H83	H	1.102835	-0.471498	0.083954
H84	H	1.000464	-0.457667	-0.147407
N85	N	0.893337	0.003713	-0.583828
N86	N	0.835973	-0.008576	-0.530717
H87	H	0.780733	-0.024813	-0.553697
N88	N	0.429713	-0.024114	-0.076486
N89	N	0.485000	-0.054745	-0.129496
H90	H	0.468661	-0.086956	-0.183225
H91	H	0.905274	0.012820	-0.424043
N92	N	0.850360	-0.446365	-0.075122
N93	N	0.884915	-0.498667	-0.129093
H94	H	0.852633	-0.516031	-0.182332
N95	N	1.142410	0.072662	-0.417590
N96	N	1.125725	0.014323	-0.367765
H97	H	1.172309	-0.028746	-0.346089
N98	N	0.564789	0.120798	-0.163408
N99	N	0.604353	0.160773	-0.217358
H100	H	0.628086	0.132484	-0.273265
H101	H	0.855317	0.171992	-0.423530
H102	H	0.931476	0.248543	-0.424133
H103	H	1.092301	0.196971	-0.422511
H104	H	0.854949	0.171929	-0.576328
H105	H	1.016544	-0.026107	-0.422717
N106	N	1.034677	-0.037284	-0.581817
N107	N	1.044370	-0.050419	-0.663118
H108	H	1.088958	-0.095612	-0.684688
N109	N	0.549456	0.246221	-0.088752
N110	N	0.490747	0.304798	-0.091842
H111	H	0.503649	0.365090	-0.095030
H112	H	0.402543	0.227161	-0.087074
N113	N	0.409162	0.119605	-0.163001
N114	N	0.332937	0.114544	-0.177389
H115	H	0.315119	0.086188	-0.233053
N116	N	0.411360	0.116145	0.162713
N117	N	0.373321	0.052350	0.156013
H118	H	0.356876	0.022241	0.211132
