data_functionalizedCrystal
_audit_creation_method	'MofGen! by Chris Wilmer'
_symmetry_space_group_name_H-M	'P1'
_symmetry_Int_Tables_number	1
_symmetry_cell_setting	triclinic
loop_
_symmetry_equiv_pos_as_xyz
  x,y,z
_cell_length_a	19.805405
_cell_length_b	18.101398
_cell_length_c	19.805399
_cell_angle_alpha	90.009370
_cell_angle_beta	90.029301
_cell_angle_gamma	90.021968
loop_
_atom_site_label
_atom_site_type_symbol
_atom_site_fract_x
_atom_site_fract_y
_atom_site_fract_z
Zn1	Zn	-0.269559	1.132142	0.382527
Zn2	Zn	-0.019559	1.382142	0.632527
Zn3	Zn	0.230441	1.632142	0.882527
Zn4	Zn	0.480441	1.882142	1.132527
Zn5	Zn	-0.382748	1.132049	0.269336
Zn6	Zn	-0.132748	1.382049	0.519336
Zn7	Zn	0.117252	1.632049	0.769336
Zn8	Zn	0.367252	1.882049	1.019336
Zn9	Zn	-0.269569	1.008302	0.269372
Zn10	Zn	-0.019569	1.258302	0.519372
Zn11	Zn	0.230431	1.508302	0.769372
Zn12	Zn	0.480431	1.758302	1.019372
Zn13	Zn	-0.382703	1.008262	0.382503
Zn14	Zn	-0.132703	1.258262	0.632503
Zn15	Zn	0.117297	1.508262	0.882503
Zn16	Zn	0.367297	1.758262	1.132503
O17	O	-0.326145	1.070189	0.325934
O18	O	-0.076145	1.320189	0.575934
O19	O	0.173855	1.570189	0.825934
O20	O	0.423855	1.820189	1.075934
O21	O	-0.284588	1.235763	0.367507
O22	O	-0.034588	1.485763	0.617507
O23	O	0.215412	1.735763	0.867507
O24	O	0.465412	1.985763	1.117507
O25	O	-0.367757	1.115612	0.174624
O26	O	-0.117757	1.365612	0.424624
O27	O	0.132243	1.615612	0.674624
O28	O	0.382243	1.865612	0.924624
O29	O	-0.174851	1.024785	0.284408
O30	O	0.075149	1.274785	0.534408
O31	O	0.325149	1.524785	0.784408
O32	O	0.575149	1.774785	1.034408
O33	O	-0.367747	1.235694	0.284346
O34	O	-0.117747	1.485694	0.534346
O35	O	0.132253	1.735694	0.784346
O36	O	0.382253	1.985694	1.034346
O37	O	-0.174844	1.115770	0.367543
O38	O	0.075156	1.365770	0.617543
O39	O	0.325156	1.615770	0.867543
O40	O	0.575156	1.865770	1.117543
O41	O	-0.284605	1.024695	0.174651
O42	O	-0.034605	1.274695	0.424651
O43	O	0.215395	1.524695	0.674651
O44	O	0.465395	1.774695	0.924651
O45	O	-0.284562	0.904664	0.284384
O46	O	-0.034562	1.154664	0.534384
O47	O	0.215438	1.404664	0.784384
O48	O	0.465438	1.654664	1.034384
O49	O	-0.367671	1.024717	0.477222
O50	O	-0.117671	1.274717	0.727222
O51	O	0.132329	1.524717	0.977222
O52	O	0.382329	1.774717	1.227222
O53	O	-0.367681	0.904635	0.367500
O54	O	-0.117681	1.154635	0.617500
O55	O	0.132319	1.404635	0.867500
O56	O	0.382319	1.654635	1.117500
O57	O	-0.284545	1.115732	0.477241
O58	O	-0.034545	1.365732	0.727241
O59	O	0.215455	1.615732	0.977241
O60	O	0.465455	1.865732	1.227241
O61	O	-0.477458	1.115573	0.284322
O62	O	-0.227458	1.365573	0.534322
O63	O	0.022542	1.615573	0.784322
O64	O	0.272542	1.865573	1.034322
O65	O	-0.477425	1.024627	0.367465
O66	O	-0.227425	1.274627	0.617465
O67	O	0.022575	1.524627	0.867465
O68	O	0.272575	1.774627	1.117465
C69	C	-0.326118	0.877778	0.325944
C70	C	-0.076118	1.127778	0.575944
C71	C	0.173882	1.377778	0.825944
C72	C	0.423882	1.627778	1.075944
C73	C	-0.326123	0.795464	0.325964
C74	C	-0.076123	1.045464	0.575964
C75	C	0.173877	1.295464	0.825964
C76	C	0.423877	1.545464	1.075964
C77	C	-0.326163	0.496373	0.325936
C78	C	-0.076163	0.746373	0.575936
C79	C	0.173837	0.996373	0.825936
C80	C	0.423837	1.246373	1.075936
C81	C	-0.378712	0.527705	0.377972
C82	C	-0.128712	0.777705	0.627972
C83	C	0.121288	1.027705	0.877972
C84	C	0.371288	1.277705	1.127972
C85	C	-0.378547	0.613323	0.378186
C86	C	-0.128547	0.863323	0.628186
C87	C	0.121453	1.113323	0.878186
C88	C	0.371453	1.363323	1.128186
C89	C	-0.326144	0.644756	0.325950
C90	C	-0.076144	0.894756	0.575950
C91	C	0.173856	1.144756	0.825950
C92	C	0.423856	1.394756	1.075950
C93	C	-0.254853	0.613695	0.345446
C94	C	-0.004853	0.863695	0.595446
C95	C	0.245147	1.113695	0.845446
C96	C	0.495147	1.363695	1.095446
C97	C	-0.255169	0.528050	0.345816
C98	C	-0.005169	0.778050	0.595816
C99	C	0.244831	1.028050	0.845816
C100	C	0.494831	1.278050	1.095816
C101	C	-0.344276	0.527923	0.254278
C102	C	-0.094276	0.777923	0.504278
C103	C	0.155724	1.027923	0.754278
C104	C	0.405724	1.277923	1.004278
C105	C	-0.345840	0.613573	0.254660
C106	C	-0.095840	0.863573	0.504660
C107	C	0.154160	1.113573	0.754660
C108	C	0.404160	1.363573	1.004660
C109	C	-0.326128	0.728615	0.325956
C110	C	-0.076128	0.978615	0.575956
C111	C	0.173872	1.228615	0.825956
C112	C	0.423872	1.478615	1.075956
C113	C	-0.326173	0.412514	0.325930
C114	C	-0.076173	0.662514	0.575930
C115	C	0.173827	0.912514	0.825930
C116	C	0.423827	1.162514	1.075930
C117	C	-0.502001	1.070106	0.325902
C118	C	-0.252001	1.320106	0.575902
C119	C	-0.002001	1.570106	0.825902
C120	C	0.247999	1.820106	1.075902
C121	C	-0.577233	1.070138	0.325910
C122	C	-0.327233	1.320138	0.575910
C123	C	-0.077233	1.570138	0.825910
C124	C	0.172767	1.820138	1.075910
C125	C	-0.612571	1.117539	0.282663
C126	C	-0.362571	1.367539	0.532663
C127	C	-0.112571	1.617539	0.782663
C128	C	0.137429	1.867539	1.032663
C129	C	-0.683260	1.117571	0.282678
C130	C	-0.433260	1.367571	0.532678
C131	C	-0.183260	1.617571	0.782678
C132	C	0.066740	1.867571	1.032678
C133	C	-0.718608	1.070196	0.325937
C134	C	-0.468608	1.320196	0.575937
C135	C	-0.218608	1.570196	0.825937
C136	C	0.031392	1.820196	1.075937
C137	C	-0.683264	1.022793	0.369189
C138	C	-0.433264	1.272793	0.619189
C139	C	-0.183264	1.522793	0.869189
C140	C	0.066736	1.772793	1.119189
C141	C	-0.612577	1.022766	0.369177
C142	C	-0.362577	1.272766	0.619177
C143	C	-0.112577	1.522766	0.869177
C144	C	0.137423	1.772766	1.119177
C145	C	-0.968338	1.022902	0.369240
C146	C	-0.718338	1.272902	0.619240
C147	C	-0.468338	1.522902	0.869240
C148	C	-0.218338	1.772902	1.119240
C149	C	-1.039030	1.022931	0.369247
C150	C	-0.789030	1.272931	0.619247
C151	C	-0.539030	1.522931	0.869247
C152	C	-0.289030	1.772931	1.119247
C153	C	-1.039020	1.117707	0.282740
C154	C	-0.789020	1.367707	0.532740
C155	C	-0.539020	1.617707	0.782740
C156	C	-0.289020	1.867707	1.032740
C157	C	-0.968333	1.117680	0.282728
C158	C	-0.718333	1.367680	0.532728
C159	C	-0.468333	1.617680	0.782728
C160	C	-0.218333	1.867680	1.032728
C161	C	-0.932996	1.070279	0.325982
C162	C	-0.682996	1.320279	0.575982
C163	C	-0.432996	1.570279	0.825982
C164	C	-0.182996	1.820279	1.075982
C165	C	-0.856347	1.070247	0.325966
C166	C	-0.606347	1.320247	0.575966
C167	C	-0.356347	1.570247	0.825966
C168	C	-0.106347	1.820247	1.075966
C169	C	-0.795255	1.070225	0.325950
C170	C	-0.545255	1.320225	0.575950
C171	C	-0.295255	1.570225	0.825950
C172	C	-0.045255	1.820225	1.075950
C173	C	-0.149602	1.070293	0.325982
C174	C	0.100398	1.320293	0.575982
C175	C	0.350398	1.570293	0.825982
C176	C	0.600398	1.820293	1.075982
C177	C	-0.074370	1.070337	0.326002
C178	C	0.175630	1.320337	0.576002
C179	C	0.425630	1.570337	0.826002
C180	C	0.675630	1.820337	1.076002
C181	C	-0.326102	1.070230	0.502477
C182	C	-0.076102	1.320230	0.752477
C183	C	0.173898	1.570230	1.002477
C184	C	0.423898	1.820230	1.252477
C185	C	-0.326084	1.070248	0.577709
C186	C	-0.076084	1.320248	0.827709
C187	C	0.173916	1.570248	1.077709
C188	C	0.423916	1.820248	1.327709
C189	C	-0.326172	1.263351	0.325925
C190	C	-0.076172	1.513351	0.575925
C191	C	0.173828	1.763351	0.825925
C192	C	0.423828	2.013351	1.075925
C193	C	-0.326183	1.345665	0.325921
C194	C	-0.076183	1.595665	0.575921
C195	C	0.173817	1.845665	0.825921
C196	C	0.423817	2.095665	1.075921
C197	C	-0.326138	1.070190	0.150078
C198	C	-0.076138	1.320190	0.400078
C199	C	0.173862	1.570190	0.650078
C200	C	0.423862	1.820190	0.900078
C201	C	-0.325966	1.070316	0.074847
C202	C	-0.075966	1.320316	0.324847
C203	C	0.174034	1.570316	0.574847
C204	C	0.424034	1.820316	0.824847
C205	C	-0.282798	1.117640	0.613064
C206	C	-0.032798	1.367640	0.863064
C207	C	0.217202	1.617640	1.113064
C208	C	0.467202	1.867640	1.363064
C209	C	-0.282778	1.117648	0.683752
C210	C	-0.032778	1.367648	0.933752
C211	C	0.217222	1.617648	1.183752
C212	C	0.467222	1.867648	1.433752
C213	C	-0.326049	1.070267	0.719085
C214	C	-0.076049	1.320267	0.969085
C215	C	0.173951	1.570267	1.219085
C216	C	0.423951	1.820267	1.469085
C217	C	-0.369336	1.022869	0.683725
C218	C	-0.119336	1.272869	0.933725
C219	C	0.130664	1.522869	1.183725
C220	C	0.380664	1.772869	1.433725
C221	C	-0.369352	1.022858	0.613038
C222	C	-0.119352	1.272858	0.863038
C223	C	0.130648	1.522858	1.113038
C224	C	0.380648	1.772858	1.363038
C225	C	-0.369273	1.022911	0.968799
C226	C	-0.119273	1.272911	1.218799
C227	C	0.130727	1.522911	1.468799
C228	C	0.380727	1.772911	1.718799
C229	C	-0.369256	1.022927	1.039491
C230	C	-0.119256	1.272927	1.289491
C231	C	0.130744	1.522927	1.539491
C232	C	0.380744	1.772927	1.789491
C233	C	-0.282699	1.117701	1.039513
C234	C	-0.032699	1.367701	1.289513
C235	C	0.217301	1.617701	1.539513
C236	C	0.467301	1.867701	1.789513
C237	C	-0.282715	1.117690	0.968826
C238	C	-0.032715	1.367690	1.218826
C239	C	0.217285	1.617690	1.468826
C240	C	0.467285	1.867690	1.718826
C241	C	-0.326000	1.070290	0.933472
C242	C	-0.076000	1.320290	1.183472
C243	C	0.174000	1.570290	1.433472
C244	C	0.424000	1.820290	1.683472
C245	C	-0.326020	1.070281	0.856824
C246	C	-0.076020	1.320281	1.106824
C247	C	0.173980	1.570281	1.356824
C248	C	0.423980	1.820281	1.606824
C249	C	-0.326033	1.070278	0.795732
C250	C	-0.076033	1.320278	1.045732
C251	C	0.173967	1.570278	1.295732
C252	C	0.423967	1.820278	1.545732
H253	H	-0.214639	0.634056	0.308727
H254	H	0.035361	0.884056	0.558727
H255	H	0.285361	1.134056	0.808727
H256	H	0.535361	1.384056	1.058727
H257	H	-0.247452	1.156293	1.068306
H258	H	0.002548	1.406293	1.318306
H259	H	0.252548	1.656293	1.568306
H260	H	0.502548	1.906293	1.818306
F261	F	-0.415341	0.972464	0.931182
F262	F	-0.165341	1.222464	1.181182
F263	F	0.084659	1.472464	1.431182
F264	F	0.334659	1.722464	1.681182
F265	F	-0.415312	0.972494	1.077093
F266	F	-0.165312	1.222494	1.327093
F267	F	0.084688	1.472494	1.577093
F268	F	0.334688	1.722494	1.827093
F269	F	-0.574957	1.167958	0.236615
F270	F	-0.324957	1.417958	0.486615
F271	F	-0.074957	1.667958	0.736615
F272	F	0.175043	1.917958	0.986615
H273	H	-0.398300	0.633882	0.239957
H274	H	-0.148300	0.883882	0.489957
H275	H	0.101700	1.133882	0.739957
H276	H	0.351700	1.383882	0.989957
F277	F	-0.202259	0.500958	0.298439
F278	F	0.047741	0.750958	0.548439
F279	F	0.297741	1.000958	0.798439
F280	F	0.547741	1.250958	1.048439
F281	F	-0.294248	0.501438	0.203599
F282	F	-0.044248	0.751438	0.453599
F283	F	0.205752	1.001438	0.703599
F284	F	0.455752	1.251438	0.953599
F285	F	-0.415385	0.972439	0.721330
F286	F	-0.165385	1.222439	0.971330
F287	F	0.084615	1.472439	1.221330
F288	F	0.334615	1.722439	1.471330
F289	F	-0.448038	0.500762	0.362184
F290	F	-0.198038	0.750762	0.612184
F291	F	0.051962	1.000762	0.862184
F292	F	0.301962	1.250762	1.112184
F293	F	-0.236664	1.168122	0.931226
F294	F	0.013336	1.418122	1.181226
F295	F	0.263336	1.668122	1.431226
F296	F	0.513336	1.918122	1.681226
H297	H	-0.431413	0.634323	0.365967
H298	H	-0.181413	0.884323	0.615967
H299	H	0.068587	1.134323	0.865967
H300	H	0.318587	1.384323	1.115967
F301	F	-0.363258	0.499575	0.446967
F302	F	-0.113258	0.749575	0.696967
F303	F	0.136742	0.999575	0.946967
F304	F	0.386742	1.249575	1.196967
F305	F	-0.720867	1.168024	0.236650
F306	F	-0.470867	1.418024	0.486650
F307	F	-0.220867	1.668024	0.736650
F308	F	0.029133	1.918024	0.986650
F309	F	-0.720887	0.972377	0.415233
F310	F	-0.470887	1.222377	0.665233
F311	F	-0.220887	1.472377	0.915233
F312	F	0.029113	1.722377	1.165233
F313	F	-0.574968	0.972316	0.415209
F314	F	-0.324968	1.222316	0.665209
F315	F	-0.074968	1.472316	0.915209
F316	F	0.175032	1.722316	1.165209
F317	F	-0.236746	1.168075	0.575467
F318	F	0.013254	1.418075	0.825467
F319	F	0.263254	1.668075	1.075467
F320	F	0.513254	1.918075	1.325467
H321	H	-0.247532	1.156241	0.712535
H322	H	0.002468	1.406241	0.962535
H323	H	0.252468	1.656241	1.212535
H324	H	0.502468	1.906241	1.462535
F325	F	-0.415421	0.972415	0.575411
F326	F	-0.165421	1.222415	0.825411
F327	F	0.084579	1.472415	1.075411
F328	F	0.334579	1.722415	1.325411
F329	F	-0.234408	0.641746	0.413173
F330	F	0.015592	0.891746	0.663173
F331	F	0.265592	1.141746	0.913173
F332	F	0.515592	1.391746	1.163173
F333	F	-0.362882	0.640123	0.447583
F334	F	-0.112882	0.890123	0.697583
F335	F	0.137118	1.140123	0.947583
F336	F	0.387118	1.390123	1.197583
H337	H	-0.239805	0.508087	0.398201
H338	H	0.010195	0.758087	0.648201
H339	H	0.260195	1.008087	0.898201
H340	H	0.510195	1.258087	1.148201
H341	H	-0.395372	0.506314	0.236561
H342	H	-0.145372	0.756314	0.486561
H343	H	0.104628	1.006314	0.736561
H344	H	0.354628	1.256314	0.986561
F345	F	-0.930717	1.168101	0.236685
F346	F	-0.680717	1.418101	0.486685
F347	F	-0.430717	1.668101	0.736685
F348	F	-0.180717	1.918101	0.986685
F349	F	-1.076635	1.168159	0.236707
F350	F	-0.826635	1.418159	0.486707
F351	F	-0.576635	1.668159	0.736707
F352	F	-0.326635	1.918159	0.986707
F353	F	-0.299443	0.641536	0.201260
F354	F	-0.049443	0.891536	0.451260
F355	F	0.200557	1.141536	0.701260
F356	F	0.450557	1.391536	0.951260
F357	F	-1.076649	0.972508	0.415293
F358	F	-0.826649	1.222508	0.665293
F359	F	-0.576649	1.472508	0.915293
F360	F	-0.326649	1.722508	1.165293
F361	F	-0.930738	0.972453	0.415274
F362	F	-0.680738	1.222453	0.665274
F363	F	-0.430738	1.472453	0.915274
F364	F	-0.180738	1.722453	1.165274
