data_functionalizedCrystal
_audit_creation_method	'MofGen! by Chris Wilmer'
_symmetry_space_group_name_H-M	'P1'
_symmetry_Int_Tables_number	1
_symmetry_cell_setting	triclinic
loop_
_symmetry_equiv_pos_as_xyz
  x,y,z
_cell_length_a	15.944551
_cell_length_b	9.198806
_cell_length_c	10.723024
_cell_angle_alpha	90.005661
_cell_angle_beta	96.016696
_cell_angle_gamma	90.004161
loop_
_atom_site_label
_atom_site_type_symbol
_atom_site_fract_x
_atom_site_fract_y
_atom_site_fract_z
O1	O	-1.115440	0.120737	0.160939
O2	O	-0.615440	0.620737	0.660939
O3	O	-0.871004	0.120773	0.180781
O4	O	-0.371004	0.620773	0.680781
O5	O	-0.998860	0.120749	-0.010788
O6	O	-0.498860	0.620749	0.489212
O7	O	-0.987584	0.120761	0.352507
O8	O	-0.487584	0.620761	0.852507
O9	O	-0.998860	-0.121036	-0.010803
O10	O	-0.498860	0.378964	0.489197
O11	O	-0.871004	-0.121012	0.180766
O12	O	-0.371004	0.378988	0.680766
O13	O	-1.115440	-0.121048	0.160924
O14	O	-0.615440	0.378952	0.660924
Cu15	Cu	-0.993222	-0.143107	0.170843
Cu16	Cu	-0.493222	0.356893	0.670843
Cu17	Cu	-0.993222	0.142832	0.170861
Cu18	Cu	-0.493222	0.642832	0.670861
O19	O	-0.987583	-0.121024	0.352492
O20	O	-0.487583	0.378976	0.852492
C21	C	-0.839705	-0.000115	0.179949
C22	C	-0.339705	0.499885	0.679949
C23	C	-0.746445	-0.000102	0.177480
C24	C	-0.246445	0.499898	0.677480
C25	C	-1.146739	-0.000157	0.161755
C26	C	-0.646739	0.499843	0.661755
C27	C	-1.239999	-0.000161	0.164225
C28	C	-0.739999	0.499839	0.664225
N29	N	-0.993227	-0.344221	0.170830
N30	N	-0.493227	0.155779	0.670830
C31	C	-0.530875	-0.000134	0.052834
C32	C	-0.030875	0.499866	0.552834
C33	C	-0.470186	0.119081	0.110723
C34	C	0.029814	0.619081	0.610723
C35	C	-0.575693	-0.000119	0.173012
C36	C	-0.075693	0.499881	0.673012
C37	C	-0.470208	-0.119300	0.110737
C38	C	0.029792	0.380700	0.610737
C39	C	-0.410756	-0.000142	0.168688
C40	C	0.089244	0.499858	0.668688
C41	C	-0.516233	0.119194	0.230934
C42	C	-0.016233	0.619194	0.730934
C43	C	-0.516262	-0.119294	0.230931
C44	C	-0.016262	0.380706	0.730931
C45	C	-0.455591	-0.000050	0.288907
C46	C	0.044409	0.499950	0.788907
C47	C	-0.670710	-0.000104	0.175500
C48	C	-0.170710	0.499896	0.675500
C49	C	-0.315741	-0.000146	0.166210
C50	C	0.184259	0.499854	0.666210
C51	C	-0.998039	-0.000142	-0.057284
C52	C	-0.498039	0.499858	0.442716
C53	C	-0.995584	-0.000137	-0.195808
C54	C	-0.495584	0.499863	0.304192
N55	N	-0.993223	0.343946	0.170865
N56	N	-0.493223	0.843946	0.670865
C57	C	-1.047023	0.416133	0.090251
C58	C	-0.547023	0.916133	0.590251
C59	C	-1.047026	0.583545	0.090232
C60	C	-0.547026	1.083545	0.590232
C61	C	-1.067126	-0.000145	-0.271694
C62	C	-0.567126	0.499855	0.228306
C63	C	-1.064590	-0.000139	-0.414865
C64	C	-0.564590	0.499861	0.085135
C65	C	-0.988404	-0.000130	0.398989
C66	C	-0.488404	0.499870	0.898989
C67	C	-0.990859	-0.000126	0.537512
C68	C	-0.490859	0.499874	1.037512
H69	H	-0.563637	0.000010	-0.046904
H70	H	-0.063637	0.500010	0.453096
F71	F	-1.149640	-0.000149	-0.218079
F72	F	-0.649640	0.499851	0.281921
H73	H	-1.093085	0.353998	0.021253
H74	H	-0.593085	0.853998	0.521253
H75	H	-0.947161	0.593711	0.239846
H76	H	-0.447161	1.093711	0.739846
F77	F	-1.144645	-0.000159	-0.500091
F78	F	-0.644645	0.499841	-0.000091
H79	H	-0.947167	0.406083	0.239872
H80	H	-0.447167	0.906083	0.739872
F81	F	-0.443522	0.250816	0.044296
F82	F	0.056478	0.750816	0.544296
H83	H	-0.929611	-0.000129	-0.397289
H84	H	-0.429611	0.499871	0.102711
F85	F	-1.107229	0.664681	0.000013
F86	F	-0.607229	1.164681	0.500013
H87	H	-0.536512	0.220091	0.281733
H88	H	-0.036512	0.720091	0.781733
F89	F	-0.412994	0.000038	0.419404
F90	F	0.087006	0.500038	0.919404
F91	F	-0.542957	-0.251033	0.297307
F92	F	-0.042957	0.248967	0.797307
F93	F	-0.443575	-0.251034	0.044264
F94	F	0.056425	0.248966	0.544264
F95	F	-0.913070	-0.000111	-0.249423
F96	F	-0.413070	0.499889	0.250577
