data_functionalizedCrystal
_audit_creation_method	'MofGen! by Chris Wilmer'
_symmetry_space_group_name_H-M	'P1'
_symmetry_Int_Tables_number	1
_symmetry_cell_setting	triclinic
loop_
_symmetry_equiv_pos_as_xyz
  x,y,z
_cell_length_a	15.698487
_cell_length_b	12.970454
_cell_length_c	12.970454
_cell_angle_alpha	59.999702
_cell_angle_beta	89.999561
_cell_angle_gamma	60.001054
loop_
_atom_site_label
_atom_site_type_symbol
_atom_site_fract_x
_atom_site_fract_y
_atom_site_fract_z
Zr1	Zr	0.820619	1.128536	-0.135312
O2	O	0.684606	1.343622	-0.299933
O3	O	0.862313	0.913448	-0.084847
O4	O	0.862315	1.128538	-0.299937
O5	O	0.684604	1.128531	0.084825
O6	O	1.002496	1.128542	-0.299940
O7	O	0.684604	1.128532	-0.084843
O8	O	1.002492	0.743785	0.084817
O9	O	0.684607	1.513288	-0.299932
O10	O	0.984712	1.001921	-0.063326
O11	O	0.880096	1.001917	0.063297
O12	O	0.880098	1.255158	-0.189944
O13	O	0.775482	1.255154	-0.063321
Zr14	Zr	1.044191	1.128541	0.135284
Zr15	Zr	1.044191	1.128543	-0.135316
Zr16	Zr	0.820618	1.128535	0.135288
Zr17	Zr	0.820620	1.399134	-0.135311
Zr18	Zr	1.044189	0.857943	0.135283
O19	O	1.002497	1.343629	0.084819
O20	O	1.002497	1.343631	-0.299939
O21	O	0.684605	1.343620	0.084825
O22	O	1.180204	0.913455	0.299906
O23	O	1.180204	0.913457	-0.084853
O24	O	0.862312	0.913446	0.299911
O25	O	1.180206	1.128546	-0.084852
O26	O	1.002495	1.128539	0.299910
O27	O	0.862314	1.128535	0.299912
O28	O	1.180206	1.128545	0.084815
O29	O	0.862317	1.513293	-0.299936
O30	O	1.002492	0.743784	0.299908
O31	O	1.180203	0.743789	0.299905
O32	O	1.180203	0.743790	0.084814
O33	O	0.684606	1.513287	-0.084842
O34	O	0.862317	1.513292	-0.084845
O35	O	0.984711	1.001919	0.189916
O36	O	1.089327	1.001923	0.063293
O37	O	0.984713	1.255160	-0.063325
O38	O	0.880098	1.255157	0.063298
C39	C	0.652749	1.128530	-0.000008
C40	C	0.557837	1.128528	-0.000007
C41	C	0.932404	1.128537	0.338466
C42	C	0.932404	1.128536	0.453342
C43	C	0.932407	1.467015	-0.000013
C44	C	0.932408	1.581891	-0.000012
C45	C	0.384052	1.128553	-0.000019
C46	C	0.480755	1.128545	-0.000015
C47	C	1.212060	1.128547	-0.000019
C48	C	1.306972	1.128550	-0.000021
C49	C	0.932402	0.790062	-0.000015
C50	C	0.932401	0.675186	-0.000015
C51	C	0.932405	1.128540	-0.338493
C52	C	0.932405	1.128541	-0.453370
C53	C	1.212058	0.790070	-0.000020
C54	C	1.306969	0.675197	-0.000022
C55	C	0.932402	0.790060	0.338464
C56	C	0.932401	0.675184	0.453341
C57	C	1.212057	0.790069	0.338459
C58	C	1.306969	0.675195	0.453334
C59	C	0.652752	1.467009	-0.338487
C60	C	0.557841	1.581882	-0.453361
C61	C	0.652752	1.467007	-0.000007
C62	C	0.557840	1.581880	-0.000005
C63	C	0.932408	1.467017	-0.338492
C64	C	0.932408	1.581893	-0.453368
C65	C	1.296933	0.621250	-0.066128
C66	C	1.386104	0.513330	-0.066156
C67	C	1.485310	0.459351	-0.000069
C68	C	1.495345	0.513308	0.066040
C69	C	1.406175	0.621234	0.066059
C70	C	1.406158	0.621251	0.441184
C71	C	1.495346	0.513330	0.549111
C72	C	1.485342	0.459348	0.669186
C73	C	1.386143	0.513302	0.681333
C74	C	1.296957	0.621229	0.573408
C75	C	0.458651	1.635839	-0.441212
C76	C	0.369464	1.743794	-0.549138
C77	C	0.379467	1.797782	-0.669213
C78	C	0.478667	1.743820	-0.681360
C79	C	0.567852	1.635875	-0.573435
C80	C	0.567877	1.635838	0.066090
C81	C	0.478706	1.743788	0.066087
C82	C	0.379499	1.797771	-0.000004
C83	C	0.369464	1.743809	-0.066107
C84	C	0.458634	1.635868	-0.066111
H85	H	1.216162	0.665199	-0.119960
H86	H	1.377913	0.469411	-0.119988
H87	H	0.486799	1.787792	-0.779138
C88	C	1.604451	0.453985	0.535727
H89	H	1.597628	0.501579	0.448756
H90	H	1.641520	0.471683	0.575065
H91	H	1.641510	0.352076	0.575086
C92	C	0.676955	1.576516	-0.586815
H93	H	0.670129	1.624125	-0.673787
H94	H	0.714036	1.594188	-0.547461
H95	H	0.714002	1.474611	-0.547473
C96	C	1.583453	0.340620	0.787892
H97	H	1.643956	0.316221	0.763448
H98	H	1.583473	0.375981	0.836733
H99	H	1.583466	0.256390	0.836718
H100	H	0.288678	1.787778	-0.119916
C101	C	0.676992	1.576475	0.138796
H102	H	0.670184	1.624093	0.178145
H103	H	0.714050	1.474574	0.201348
H104	H	0.714053	1.594170	0.081739
H105	H	0.486896	1.787706	0.119921
H106	H	1.378013	0.469334	0.779112
C107	C	0.281421	1.916499	0.000015
H108	H	0.301617	1.940886	0.048857
H109	H	0.241073	2.000722	-0.084188
H110	H	0.241077	1.881117	0.035418
C111	C	1.604473	0.453903	0.138754
H112	H	1.597690	0.501483	0.178133
H113	H	1.641511	0.352000	0.201282
H114	H	1.641538	0.471594	0.081703
C115	C	1.187855	0.680539	0.586787
H116	H	1.194680	0.632913	0.673759
H117	H	1.150776	0.782443	0.547436
H118	H	1.150805	0.662819	0.547443
H119	H	1.557910	0.371470	-0.000093
C120	C	0.260358	1.803119	-0.535754
H121	H	0.267182	1.755481	-0.448783
H122	H	0.223293	1.905018	-0.575090
H123	H	0.223296	1.785426	-0.575116
H124	H	0.450486	1.591888	-0.343451
H125	H	0.306838	1.885677	-0.757083
H126	H	1.414362	0.665144	0.119898
H127	H	1.414323	0.665188	0.343423
H128	H	0.450448	1.591938	-0.119930
