data_functionalizedCrystal
_audit_creation_method	'MofGen! by Chris Wilmer'
_symmetry_space_group_name_H-M	'P1'
_symmetry_Int_Tables_number	1
_symmetry_cell_setting	triclinic
loop_
_symmetry_equiv_pos_as_xyz
  x,y,z
_cell_length_a	19.288864
_cell_length_b	15.021413
_cell_length_c	19.288865
_cell_angle_alpha	89.996202
_cell_angle_beta	96.863755
_cell_angle_gamma	90.007021
loop_
_atom_site_label
_atom_site_type_symbol
_atom_site_fract_x
_atom_site_fract_y
_atom_site_fract_z
O1	O	0.921337	0.074328	-0.086643
O2	O	1.421337	0.574328	0.413357
O3	O	0.719077	0.074268	-0.098331
O4	O	1.219077	0.574268	0.401669
O5	O	0.826051	0.074282	0.008643
O6	O	1.326051	0.574282	0.508643
O7	O	0.814363	0.074314	-0.193617
O8	O	1.314363	0.574314	0.306383
O9	O	0.826064	-0.073782	0.008637
O10	O	1.326064	0.426218	0.508637
O11	O	0.719089	-0.073796	-0.098338
O12	O	1.219089	0.426204	0.401662
O13	O	0.921350	-0.073737	-0.086649
O14	O	1.421350	0.426263	0.413351
Zn15	Zn	0.820222	-0.097275	-0.092495
Zn16	Zn	1.320222	0.402725	0.407505
Zn17	Zn	0.820205	0.097806	-0.092486
Zn18	Zn	1.320205	0.597806	0.407514
O19	O	0.814375	-0.073750	-0.193624
O20	O	1.314375	0.426250	0.306376
C21	C	0.693207	0.000228	-0.097959
C22	C	1.193207	0.500228	0.402041
C23	C	0.616103	0.000205	-0.096830
C24	C	1.116103	0.500205	0.403170
C25	C	0.571407	0.000229	-0.159598
C26	C	1.071407	0.500229	0.340402
C27	C	0.498960	0.000238	-0.158537
C28	C	0.998960	0.500238	0.341463
C29	C	0.471212	0.000242	-0.094705
C30	C	0.971212	0.500242	0.405295
C31	C	0.515918	0.000213	-0.031929
C32	C	1.015918	0.500213	0.468071
C33	C	0.588364	0.000194	-0.032991
C34	C	1.088364	0.500194	0.467009
C35	C	0.362946	0.052137	-0.044523
C36	C	0.862946	0.552137	0.455477
C37	C	0.290501	0.052161	-0.043463
C38	C	0.790501	0.552161	0.456537
C39	C	0.247766	0.000295	-0.091425
C40	C	0.747766	0.500295	0.408575
C41	C	0.277484	-0.051584	-0.140458
C42	C	0.777484	0.448416	0.359542
C43	C	0.349929	-0.051602	-0.141521
C44	C	0.849929	0.448398	0.358479
C45	C	0.392658	0.000262	-0.093546
C46	C	0.892658	0.500262	0.406454
C47	C	0.124514	0.000328	-0.153047
C48	C	0.624514	0.500328	0.346953
C49	C	0.052066	0.000333	-0.151984
C50	C	0.552066	0.500333	0.348016
C51	C	0.069026	0.000316	-0.025374
C52	C	0.569026	0.500316	0.474626
C53	C	0.141473	0.000303	-0.026439
C54	C	0.641473	0.500303	0.473561
C55	C	0.169212	0.000313	-0.090278
C56	C	0.669212	0.500313	0.409722
N57	N	0.820238	-0.230412	-0.092500
N58	N	1.320238	0.269588	0.407500
C59	C	0.869713	-0.470065	-0.043024
C60	C	1.369713	0.029935	0.456976
C61	C	0.806992	-0.529416	-0.029730
C62	C	1.306992	-0.029416	0.470270
C63	C	0.820222	-0.412019	-0.092492
C64	C	1.320222	0.087981	0.407508
C65	C	0.882927	-0.529411	-0.105744
C66	C	1.382927	-0.029411	0.394256
C67	C	0.820212	-0.587443	-0.092482
C68	C	1.320212	-0.087443	0.407518
C69	C	0.757469	-0.470063	-0.079167
C70	C	1.257469	0.029937	0.420833
C71	C	0.833446	-0.470053	-0.155208
C72	C	1.333446	0.029947	0.344792
C73	C	0.770680	-0.529376	-0.141941
C74	C	1.270680	-0.029376	0.358059
C75	C	0.820228	-0.310962	-0.092495
C76	C	1.320228	0.189038	0.407505
C77	C	0.820198	-0.688498	-0.092478
C78	C	1.320198	-0.188498	0.407522
C79	C	0.947220	0.000305	-0.087022
C80	C	1.447220	0.500305	0.412978
C81	C	1.024324	0.000335	-0.088151
C82	C	1.524324	0.500335	0.411849
C83	C	0.825682	0.000247	0.034516
C84	C	1.325682	0.500247	0.534516
C85	C	0.824553	0.000239	0.111620
C86	C	1.324553	0.500239	0.611620
N87	N	0.820194	0.230944	-0.092475
N88	N	1.320194	0.730944	0.407525
C89	C	0.814745	0.000286	-0.219497
C90	C	1.314745	0.500286	0.280503
C91	C	0.815874	0.000300	-0.296601
C92	C	1.315874	0.500300	0.203399
C93	C	0.887320	0.000253	0.156316
C94	C	1.387320	0.500253	0.656316
C95	C	0.886260	0.000267	0.228763
C96	C	1.386260	0.500267	0.728763
C97	C	0.822428	0.000249	0.256511
C98	C	1.322428	0.500249	0.756511
C99	C	0.759652	0.000240	0.211805
C100	C	1.259652	0.500240	0.711805
C101	C	0.760714	0.000235	0.139359
C102	C	1.260714	0.500235	0.639359
C103	C	0.772252	-0.051630	0.364796
C104	C	1.272252	0.448370	0.864796
C105	C	0.771193	-0.051630	0.437240
C106	C	1.271193	0.448370	0.937240
C107	C	0.819148	0.000268	0.479956
C108	C	1.319148	0.500268	0.979956
C109	C	0.868175	0.052155	0.450221
C110	C	1.368175	0.552155	0.950221
C111	C	0.869238	0.052150	0.377775
C112	C	1.369238	0.552150	0.877775
C113	C	0.821269	0.000254	0.335065
C114	C	1.321269	0.500254	0.835065
C115	C	0.880770	0.000298	0.603209
C116	C	1.380770	0.500298	1.103209
C117	C	0.879707	0.000317	0.675657
C118	C	1.379707	0.500317	1.175657
C119	C	0.753097	0.000281	0.658697
C120	C	1.253097	0.500281	1.158697
C121	C	0.754162	0.000271	0.586250
C122	C	1.254162	0.500271	1.086250
C123	C	0.818000	0.000275	0.558511
C124	C	1.318000	0.500275	1.058511
H125	H	0.242690	-0.093819	-0.179513
H126	H	0.742690	0.406181	0.320487
O127	O	0.601328	0.000214	-0.228448
O128	O	1.101328	0.500214	0.271552
H129	H	0.558071	0.000219	-0.271917
H130	H	1.058071	0.500219	0.228083
O131	O	0.189685	0.000281	0.041263
O132	O	0.689685	0.500281	0.541263
H133	H	0.223117	0.060616	0.043810
H134	H	0.723117	0.560616	0.543810
H135	H	0.046435	0.000374	0.026600
H136	H	0.546435	0.500374	0.526600
O137	O	0.715175	-0.563674	-0.197343
O138	O	1.215175	-0.063674	0.302657
H139	H	0.687346	-0.506559	-0.224529
H140	H	1.187346	-0.006559	0.275471
H141	H	0.844660	-0.443958	-0.208233
H142	H	1.344660	0.056042	0.291767
O143	O	0.687205	-0.435681	-0.064230
O144	O	1.187205	0.064319	0.435770
H145	H	0.652285	-0.492759	-0.056831
H146	H	1.152285	0.007241	0.443169
O147	O	0.450737	0.000274	-0.226238
O148	O	0.950737	0.500274	0.273762
H149	H	0.482198	0.000284	-0.270807
H150	H	0.982198	0.500284	0.229193
H151	H	0.935960	-0.555480	-0.116958
H152	H	1.435960	-0.055480	0.383042
H153	H	0.147101	0.000324	-0.205028
H154	H	0.647101	0.500324	0.294972
O155	O	0.956171	0.000283	0.126395
O156	O	1.456171	0.500283	0.626395
H157	H	0.999640	0.000308	0.169652
H158	H	1.499640	0.500308	0.669652
O159	O	0.409041	0.108079	0.007209
O160	O	0.909041	0.608079	0.507209
H161	H	0.394201	0.179193	0.000240
H162	H	0.894201	0.679193	0.500240
H163	H	0.266311	0.094408	-0.003540
H164	H	0.766311	0.594408	0.496460
O165	O	0.485997	0.000217	0.036921
O166	O	0.985997	0.500217	0.536921
H167	H	0.428112	0.000243	0.027116
H168	H	0.928112	0.500243	0.527116
O169	O	0.953961	0.000270	0.276986
O170	O	1.453961	0.500270	0.776986
H171	H	0.998530	0.000265	0.245525
H172	H	1.498530	0.500265	0.745525
H173	H	0.909156	0.094400	0.353567
H174	H	1.409156	0.594400	0.853567
O175	O	0.003852	0.000355	-0.219686
O176	O	0.503852	0.500355	0.280314
H177	H	0.035315	0.000366	-0.264252
H178	H	0.535315	0.500366	0.235748
H179	H	0.907225	0.094416	0.484999
H180	H	1.407225	0.594416	0.984999
O181	O	0.636579	0.000173	0.034711
O182	O	1.136579	0.500173	0.534711
H183	H	0.605117	0.000179	0.079278
H184	H	1.105117	0.500179	0.579278
H185	H	0.911522	-0.444022	-0.001168
H186	H	1.411522	0.055978	0.498832
O187	O	0.792163	-0.563975	0.040523
O188	O	1.292163	-0.063975	0.540523
H189	H	0.833319	-0.540232	0.081495
H190	H	1.333319	-0.040232	0.581495
H191	H	0.932751	0.000305	0.580622
H192	H	1.432751	0.500305	1.080622
O193	O	0.947409	0.000325	0.723871
O194	O	1.447409	0.500325	1.223871
H195	H	0.991975	0.000316	0.692408
H196	H	1.491975	0.500316	1.192408
H197	H	0.701123	0.000270	0.681288
H198	H	1.201123	0.500270	1.181288
H199	H	0.703049	0.000254	0.549857
H200	H	1.203049	0.500254	1.049857
H201	H	0.731269	-0.093875	0.461445
H202	H	1.231269	0.406125	0.961445
H203	H	0.733200	-0.093896	0.330022
H204	H	1.233200	0.406104	0.830022
H205	H	0.709599	0.000223	0.102967
H206	H	1.209599	0.500223	0.602967
O207	O	0.381988	-0.107589	-0.194376
O208	O	0.881988	0.392411	0.305624
H209	H	0.340108	-0.143671	-0.227541
H210	H	0.840108	0.356329	0.272459
O211	O	0.690801	0.000210	0.241726
O212	O	1.190801	0.500210	0.741726
H213	H	0.700607	0.000203	0.299611
H214	H	1.200607	0.500203	0.799611
