data_functionalizedCrystal
_audit_creation_method	'MofGen! by Chris Wilmer'
_symmetry_space_group_name_H-M	'P1'
_symmetry_Int_Tables_number	1
_symmetry_cell_setting	triclinic
loop_
_symmetry_equiv_pos_as_xyz
  x,y,z
_cell_length_a	15.944493
_cell_length_b	26.809956
_cell_length_c	15.944545
_cell_angle_alpha	90.002241
_cell_angle_beta	96.514392
_cell_angle_gamma	90.008262
loop_
_atom_site_label
_atom_site_type_symbol
_atom_site_fract_x
_atom_site_fract_y
_atom_site_fract_z
O1	O	1.114559	0.041475	-0.108089
O2	O	0.870002	0.041478	-0.121496
O3	O	0.998961	0.041471	0.007484
O4	O	0.985599	0.041483	-0.237069
O5	O	0.998937	-0.041489	0.007465
O6	O	0.869978	-0.041481	-0.121515
O7	O	1.114534	-0.041484	-0.108108
Zn8	Zn	0.992252	-0.054654	-0.114815
Zn9	Zn	0.992284	0.054648	-0.114789
O10	O	0.985575	-0.041477	-0.237088
C11	C	0.838695	-0.000001	-0.120958
C12	C	0.745447	-0.000000	-0.119315
N13	N	0.992236	-0.129250	-0.114832
C14	C	0.509685	0.000004	-0.195235
C15	C	0.459116	-0.040904	-0.154304
C16	C	0.574726	-0.000002	-0.116271
C17	C	0.459144	0.040888	-0.154266
C18	C	0.409816	-0.000000	-0.113336
C19	C	0.525384	-0.040943	-0.075361
C20	C	0.525416	0.040885	-0.075334
C21	C	0.474880	-0.000032	-0.034345
C22	C	0.669725	-0.000003	-0.117963
C23	C	0.314819	-0.000003	-0.111637
C24	C	1.049380	-0.473879	-0.057691
C25	C	1.049400	-0.682757	-0.057678
O26	O	1.097952	-0.709764	-0.009099
N27	N	0.992289	-0.708877	-0.114771
C28	C	0.935165	-0.682775	-0.171867
O29	O	0.886583	-0.709784	-0.220421
C30	C	0.935142	-0.473898	-0.171875
C31	C	0.992262	-0.447781	-0.114784
C32	C	1.106496	-0.447762	-0.000604
C33	C	1.106493	-0.395546	-0.000611
C34	C	1.049375	-0.369447	-0.057704
C35	C	0.992260	-0.395564	-0.114791
C36	C	0.878014	-0.447796	-0.228966
C37	C	0.878012	-0.395574	-0.228962
C38	C	0.935133	-0.369456	-0.171871
C39	C	0.935139	-0.317249	-0.171891
N40	N	0.992251	-0.291129	-0.114799
C41	C	1.049369	-0.317228	-0.057705
C42	C	0.935182	-0.792438	-0.171860
C43	C	0.935189	-0.844657	-0.171859
C44	C	1.049423	-0.844636	-0.057669
C45	C	1.049420	-0.792416	-0.057674
C46	C	0.992293	-0.766318	-0.114767
C47	C	1.049359	-0.207570	-0.057724
C48	C	1.049354	-0.155349	-0.057739
C49	C	0.935117	-0.155375	-0.171925
C50	C	0.935125	-0.207591	-0.171914
C51	C	0.992249	-0.233687	-0.114807
O52	O	0.886607	-0.290210	-0.220438
O53	O	1.097931	-0.290209	-0.009145
C54	C	1.049383	-0.526096	-0.057684
C55	C	0.992267	-0.552213	-0.114771
C56	C	0.935149	-0.526114	-0.171864
C57	C	0.992274	-0.604432	-0.114770
C58	C	1.049392	-0.630531	-0.057676
C59	C	1.106503	-0.604411	-0.000584
C60	C	1.106500	-0.552195	-0.000590
C61	C	0.878038	-0.552234	-0.228957
C62	C	0.878046	-0.604451	-0.228946
C63	C	0.935164	-0.630550	-0.171852
C64	C	1.145841	-0.000003	-0.108646
C65	C	1.239090	-0.000001	-0.110289
C66	C	0.998395	-0.000009	0.038768
C67	C	0.996735	-0.000011	0.132014
N68	N	0.992307	0.129244	-0.114765
C69	C	0.986141	0.000005	-0.268373
C70	C	0.987801	0.000009	-0.361618
C71	C	0.911839	0.000000	0.402630
C72	C	0.952781	0.040903	0.352062
C73	C	0.990814	0.000003	0.467657
C74	C	0.952778	-0.040888	0.352070
C75	C	0.993719	-0.000004	0.302744
C76	C	1.031735	0.040940	0.418318
C77	C	1.031721	-0.040888	0.418329
C78	C	1.072721	0.000025	0.367795
C79	C	0.989139	0.000008	0.562659
C80	C	0.995401	-0.000006	0.207745
H81	H	0.525307	-0.000031	-0.263255
H82	H	1.065074	0.075559	0.447139
H83	H	0.430167	-0.075484	-0.187660
Br84	Br	1.186168	0.000060	0.341993
H85	H	1.095932	-0.865894	-0.011182
H86	H	1.153008	-0.469007	0.045892
H87	H	1.065035	-0.075471	0.447278
Br88	Br	0.449095	-0.000076	0.079108
Br89	Br	0.798480	0.000065	0.428699
H90	H	1.153014	-0.625669	0.045901
H91	H	0.919401	-0.075467	0.323141
H92	H	0.888615	-0.134117	-0.218413
H93	H	0.554203	-0.075561	-0.042041
H94	H	0.554373	0.075467	-0.042003
Br95	Br	0.857648	-0.757025	-0.249351
H96	H	0.831533	-0.625712	-0.275443
H97	H	0.919438	0.075485	0.323129
Br98	Br	0.800513	-0.516821	-0.306447
Br99	Br	0.410925	0.098521	-0.209859
H100	H	0.831490	-0.374327	-0.275453
H101	H	1.095872	-0.134086	-0.011249
Br102	Br	0.857613	-0.243035	-0.249408
H103	H	1.095874	-0.228812	-0.011221
H104	H	1.095932	-0.771154	-0.011186
Br105	Br	0.857679	-0.880096	-0.249355
Br106	Br	1.184012	-0.360106	0.076876
Br107	Br	1.184026	-0.516757	0.076893
H108	H	0.831501	-0.469054	-0.275454
