data_functionalizedCrystal
_audit_creation_method	'MofGen! by Chris Wilmer'
_symmetry_space_group_name_H-M	'P1'
_symmetry_Int_Tables_number	1
_symmetry_cell_setting	triclinic
loop_
_symmetry_equiv_pos_as_xyz
  x,y,z
_cell_length_a	10.489763
_cell_length_b	9.730223
_cell_length_c	10.654550
_cell_angle_alpha	90.001139
_cell_angle_beta	84.516632
_cell_angle_gamma	89.999045
loop_
_atom_site_label
_atom_site_type_symbol
_atom_site_fract_x
_atom_site_fract_y
_atom_site_fract_z
O1	O	-1.693949	0.114226	-0.177318
O2	O	-1.322749	0.114242	-0.193921
O3	O	-1.516884	0.114229	-0.002885
O4	O	-1.499815	0.114240	-0.368354
O5	O	-1.516871	-0.114351	-0.002896
O6	O	-1.322737	-0.114338	-0.193932
O7	O	-1.693937	-0.114354	-0.177329
Zn8	Zn	-1.508335	-0.150638	-0.185632
Zn9	Zn	-1.508351	0.150526	-0.185618
O10	O	-1.499802	-0.114340	-0.368365
C11	C	-1.275212	-0.000046	-0.192666
C12	C	-1.133586	-0.000040	-0.188897
N13	N	-1.508333	-0.356174	-0.185641
C14	C	-1.065505	-0.000058	-0.067331
C15	C	-0.973358	0.112641	-0.124742
C16	C	-0.973379	-0.112720	-0.124782
C17	C	-1.043304	0.112752	-0.246358
C18	C	-1.043335	-0.112711	-0.246381
C19	C	-0.951215	0.000016	-0.303880
C20	C	-1.586365	-0.428114	-0.262558
C21	C	-1.586384	-0.571997	-0.262534
C22	C	-1.430328	-0.571987	-0.108673
C23	C	-1.430316	-0.428107	-0.108691
C24	C	-1.664382	-0.356182	-0.339508
C25	C	-1.742419	-0.428122	-0.416433
C26	C	-1.742438	-0.572005	-0.416409
C27	C	-1.664420	-0.643948	-0.339461
C28	C	-0.741476	-0.000066	-0.178564
C29	C	-0.883110	-0.000074	-0.182274
C30	C	-1.515624	-0.000060	0.043908
C31	C	-1.511875	-0.000055	0.183354
N32	N	-1.508363	0.356062	-0.185599
C33	C	-1.501062	-0.000049	-0.415158
C34	C	-1.504811	-0.000045	-0.554603
C35	C	-1.626178	-0.000064	0.262777
C36	C	-1.622647	-0.000054	0.393800
C37	C	-1.390499	-0.000032	0.365963
C38	C	-1.394031	-0.000032	0.234943
C39	C	-1.744021	-0.000086	0.211187
C40	C	-1.858334	-0.000097	0.290612
C41	C	-1.854803	-0.000087	0.421635
C42	C	-1.736959	-0.000067	0.473233
H43	H	-1.115243	0.000081	0.032596
H44	H	-1.746909	-0.000099	0.104504
H45	H	-1.734093	-0.000044	0.579922
F46	F	-1.825501	-0.648566	-0.498267
H47	H	-1.300955	-0.000026	0.170274
F48	F	-1.976462	-0.000084	0.506160
H49	H	-0.942374	0.207920	-0.073301
H50	H	-1.366806	-0.630574	-0.046027
H51	H	-1.664454	-0.761107	-0.339436
H52	H	-1.366773	-0.369532	-0.046060
H53	H	-1.074112	0.208140	-0.297751
H54	H	-1.954278	-0.000079	0.248591
H55	H	-0.901743	0.000080	-0.403913
F56	F	-0.932917	-0.237261	-0.057530
F57	F	-1.083879	-0.237253	-0.313565
F58	F	-1.664364	-0.203050	-0.339543
H59	H	-1.805946	-0.369537	-0.479074
F60	F	-1.265091	-0.000012	0.420883
