data_functionalizedCrystal
_audit_creation_method	'MofGen! by Chris Wilmer'
_symmetry_space_group_name_H-M	'P1'
_symmetry_Int_Tables_number	1
_symmetry_cell_setting	triclinic
loop_
_symmetry_equiv_pos_as_xyz
  x,y,z
_cell_length_a	23.096457
_cell_length_b	14.560438
_cell_length_c	14.560438
_cell_angle_alpha	59.997945
_cell_angle_beta	89.997670
_cell_angle_gamma	60.003934
loop_
_atom_site_label
_atom_site_type_symbol
_atom_site_fract_x
_atom_site_fract_y
_atom_site_fract_z
Zr1	Zr	0.557854	1.005197	-0.120529
O2	O	0.465418	1.196792	-0.267171
O3	O	0.586180	0.813605	-0.075577
O4	O	0.586194	1.005198	-0.267179
O5	O	0.465403	1.005197	0.075571
O6	O	0.681477	1.005195	-0.267182
O7	O	0.465403	1.005199	-0.075570
O8	O	0.681450	0.662470	0.075558
O9	O	0.465430	1.347921	-0.267169
O10	O	0.669381	0.892405	-0.056406
O11	O	0.598273	0.892406	0.056391
O12	O	0.598290	1.117982	-0.169194
O13	O	0.527182	1.117983	-0.056397
Zr14	Zr	0.709818	1.005187	0.120518
Zr15	Zr	0.709818	1.005191	-0.120534
Zr16	Zr	0.557854	1.005193	0.120523
Zr17	Zr	0.557872	1.246230	-0.120525
Zr18	Zr	0.709799	0.764153	0.120514
O19	O	0.681492	1.196778	0.075566
O20	O	0.681492	1.196784	-0.267179
O21	O	0.465418	1.196786	0.075574
O22	O	0.802254	0.813591	0.267161
O23	O	0.802253	0.813597	-0.075585
O24	O	0.586180	0.813600	0.267168
O25	O	0.802268	1.005187	-0.075581
O26	O	0.681477	1.005185	0.267168
O27	O	0.586195	1.005189	0.267171
O28	O	0.802268	1.005184	0.075559
O29	O	0.586221	1.347917	-0.267173
O30	O	0.681451	0.662467	0.267162
O31	O	0.802242	0.662462	0.267158
O32	O	0.802242	0.662466	0.075554
O33	O	0.465430	1.347918	-0.075565
O34	O	0.586221	1.347913	-0.075569
O35	O	0.669381	0.892402	0.169184
O36	O	0.740489	0.892401	0.056387
O37	O	0.669398	1.117977	-0.056402
O38	O	0.598290	1.117978	0.056395
C39	C	0.633812	0.703696	-0.000010
C40	C	0.633805	0.601371	-0.000012
C41	C	0.686309	0.470051	0.083252
C42	C	0.686339	0.373871	0.083261
C43	C	0.581358	0.540346	-0.083267
C44	C	0.581325	0.636523	-0.083271
C45	C	0.746920	0.373937	0.179393
C46	C	0.746950	0.277757	0.179402
C47	C	0.443752	1.005199	0.000001
C48	C	0.379239	1.005201	0.000003
C49	C	0.348936	1.005212	-0.083267
C50	C	0.288324	1.005200	-0.083267
C51	C	0.258008	1.005204	-0.000005
C52	C	0.288321	1.005186	0.083280
C53	C	0.348936	1.005184	0.083284
N54	N	0.139662	1.078731	0.025203
N55	N	0.082079	1.078735	0.025193
C56	C	0.075379	1.005205	-0.000011
N57	N	0.128432	0.931686	-0.025225
N58	N	0.186018	0.931688	-0.025219
C59	C	0.192282	1.005204	0.000000
C60	C	-0.020646	1.005201	-0.083285
C61	C	-0.081257	1.005181	-0.083278
C62	C	-0.081263	1.005179	0.083265
C63	C	-0.020649	1.005186	0.083261
C64	C	0.009654	1.005203	-0.000019
C65	C	0.823920	1.005185	-0.000012
C66	C	0.888433	1.005182	-0.000014
C67	C	0.633836	1.005197	-0.301525
C68	C	0.633835	1.005199	-0.403858
C69	C	0.633859	1.306688	-0.000001
C70	C	0.633867	1.409013	0.000001
C71	C	0.596724	1.122945	-0.510809
C72	C	0.596726	1.122939	-0.606957
C73	C	0.670952	0.887429	-0.489191
C74	C	0.670954	0.887437	-0.393045
C75	C	0.553868	1.258915	-0.578801
C76	C	0.553870	1.258909	-0.674950
C77	C	0.633836	1.005187	0.301514
C78	C	0.633836	1.005185	0.403847
C79	C	0.823897	0.703689	-0.000017
C80	C	0.888402	0.601361	-0.000020
C81	C	0.633813	0.703691	0.301509
C82	C	0.633805	0.601364	0.403841
C83	C	0.823897	0.703683	0.301503
C84	C	0.888402	0.601354	0.403832
C85	C	0.443775	1.306700	-0.301514
C86	C	0.379270	1.409029	-0.403843
C87	C	0.443775	1.306695	0.000006
C88	C	0.379270	1.409023	0.000010
C89	C	0.633859	1.306693	-0.301520
C90	C	0.633867	1.409020	-0.403851
C91	C	0.881576	0.553309	-0.058909
C92	C	0.942179	0.457175	-0.058935
C93	C	1.009608	0.409088	-0.000065
C94	C	1.016432	0.457149	0.058825
C95	C	0.955829	0.553288	0.058844
C96	C	0.955818	0.553299	0.393008
C97	C	1.016433	0.457163	0.489148
C98	C	1.009630	0.409078	0.596111
C99	C	0.942207	0.457143	0.606933
C100	C	0.881594	0.553283	0.510794
C101	C	0.311853	1.457096	-0.393019
C102	C	0.251238	1.553262	-0.489159
C103	C	0.258041	1.601352	-0.596122
C104	C	0.325464	1.553281	-0.606944
C105	C	0.386078	1.457124	-0.510805
C106	C	0.386095	1.457084	0.058888
C107	C	0.325492	1.553245	0.058887
C108	C	0.258064	1.601336	0.000015
C109	C	0.251240	1.553270	-0.058871
C110	C	0.311842	1.457118	-0.058876
C111	C	0.670920	0.553283	0.510793
C112	C	0.670907	0.457141	0.606940
C113	C	0.596663	0.457165	0.489169
C114	C	0.596672	0.553312	0.393025
C115	C	0.713787	0.553265	0.578787
C116	C	0.713774	0.457123	0.674935
H117	H	0.373608	1.005222	-0.151077
H118	H	0.196331	1.592440	-0.106804
H119	H	0.566441	0.592469	0.305942
H120	H	0.538570	0.743448	-0.151069
F121	F	0.934902	0.406038	-0.121612
F122	F	0.557145	0.406019	0.477670
F123	F	0.193570	1.703670	0.000032
H124	H	0.741688	0.363106	0.261511
F125	F	0.963104	0.604411	0.121531
F126	F	0.304597	1.405930	-0.279190
H127	H	0.795116	0.373977	0.162582
H128	H	0.768662	0.517131	0.570056
H129	H	0.736369	0.218071	0.255882
F130	F	0.809819	0.604474	-0.121573
F131	F	0.814656	0.195346	0.168698
H132	H	0.497117	1.311109	-0.727142
F133	F	0.676819	0.504338	0.741503
H134	H	0.538631	0.568952	-0.151054
H135	H	0.263647	1.005209	-0.151077
H136	H	0.770522	0.367102	0.727130
H137	H	0.936679	0.417977	0.694035
F138	F	0.256059	1.005183	0.171897
F139	F	0.963074	0.604463	0.279179
H140	H	0.004023	1.005185	0.151064
F141	F	0.381188	1.005173	0.171915
F142	F	1.074148	0.306754	0.698422
H143	H	0.498992	1.301110	-0.570071
F144	F	0.179488	1.604402	-0.477618
H145	H	0.582154	1.301097	-0.725873
H146	H	1.071327	0.418039	0.480317
H147	H	0.826702	0.592397	0.519623
H148	H	0.004029	1.005209	-0.151095
F149	F	0.193524	1.703692	-0.698433
H150	H	0.689954	0.643271	0.578807
H151	H	0.306275	1.417988	-0.106819
F152	F	0.332693	1.604474	-0.720791
H153	H	0.440994	1.417936	0.106837
F154	F	1.088200	0.405955	0.121477
H155	H	-0.105942	1.005174	0.151062
F156	F	0.457826	1.405970	-0.522342
H157	H	-0.105927	1.005182	-0.151084
F158	F	0.710450	0.762116	-0.279219
H159	H	0.577712	1.311126	-0.578824
F160	F	0.710454	0.762106	-0.477694
H161	H	0.331062	1.592364	0.106843
H162	H	1.058949	0.330804	-0.000089
