data_functionalizedCrystal
_audit_creation_method	'MofGen! by Chris Wilmer'
_symmetry_space_group_name_H-M	'P1'
_symmetry_Int_Tables_number	1
_symmetry_cell_setting	triclinic
loop_
_symmetry_equiv_pos_as_xyz
  x,y,z
_cell_length_a	18.101395
_cell_length_b	16.120530
_cell_length_c	16.120297
_cell_angle_alpha	89.871860
_cell_angle_beta	92.872690
_cell_angle_gamma	92.873335
loop_
_atom_site_label
_atom_site_type_symbol
_atom_site_fract_x
_atom_site_fract_y
_atom_site_fract_z
Zn1	Zn	-0.375190	-1.247384	-0.534565
Zn2	Zn	-0.125190	-0.997384	-0.284565
Zn3	Zn	0.124810	-0.747384	-0.034565
Zn4	Zn	0.374810	-0.497384	0.215435
Zn5	Zn	-0.493082	-1.254317	-0.395508
Zn6	Zn	-0.243082	-1.004317	-0.145508
Zn7	Zn	0.006918	-0.754317	0.104492
Zn8	Zn	0.256918	-0.504317	0.354492
Zn9	Zn	-0.362676	-1.115376	-0.388483
Zn10	Zn	-0.112676	-0.865376	-0.138483
Zn11	Zn	0.137324	-0.615376	0.111517
Zn12	Zn	0.387324	-0.365376	0.361517
Zn13	Zn	-0.492400	-1.108274	-0.527477
Zn14	Zn	-0.242400	-0.858274	-0.277477
Zn15	Zn	0.007600	-0.608274	-0.027477
Zn16	Zn	0.257600	-0.358274	0.222523
O17	O	-0.430837	-1.181338	-0.461508
O18	O	-0.180837	-0.931338	-0.211508
O19	O	0.069163	-0.681338	0.038492
O20	O	0.319163	-0.431338	0.288492
O21	O	-0.396351	-1.364669	-0.522025
O22	O	-0.146351	-1.114669	-0.272025
O23	O	0.103649	-0.864669	-0.022025
O24	O	0.353649	-0.614669	0.227975
O25	O	-0.470832	-1.241761	-0.278211
O26	O	-0.220832	-0.991761	-0.028211
O27	O	0.029168	-0.741761	0.221789
O28	O	0.279168	-0.491761	0.471789
O29	O	-0.260707	-1.132958	-0.407888
O30	O	-0.010707	-0.882958	-0.157888
O31	O	0.239293	-0.632958	0.092112
O32	O	0.489293	-0.382958	0.342112
O33	O	-0.482966	-1.369763	-0.419860
O34	O	-0.232966	-1.119763	-0.169860
O35	O	0.017034	-0.869763	0.080140
O36	O	0.267034	-0.619763	0.330140
O37	O	-0.269901	-1.229944	-0.515214
O38	O	-0.019901	-0.979944	-0.265214
O39	O	0.230099	-0.729944	-0.015214
O40	O	0.480099	-0.479944	0.234786
O41	O	-0.375023	-1.139681	-0.273050
O42	O	-0.125023	-0.889681	-0.023050
O43	O	0.124977	-0.639681	0.226950
O44	O	0.374977	-0.389681	0.476950
O45	O	-0.374361	-0.998069	-0.401015
O46	O	-0.124361	-0.748069	-0.151015
O47	O	0.125639	-0.498069	0.098985
O48	O	0.375639	-0.248069	0.348985
O49	O	-0.481804	-1.120853	-0.644783
O50	O	-0.231804	-0.870853	-0.394783
O51	O	0.018196	-0.620853	-0.144783
O52	O	0.268196	-0.370853	0.105217
O53	O	-0.469669	-0.992851	-0.503133
O54	O	-0.219669	-0.742851	-0.253133
O55	O	0.030331	-0.492851	-0.003133
O56	O	0.280331	-0.242851	0.246867
O57	O	-0.395690	-1.223057	-0.649990
O58	O	-0.145690	-0.973057	-0.399990
O59	O	0.104310	-0.723057	-0.149990
O60	O	0.354310	-0.473057	0.100010
O61	O	-0.596620	-1.234873	-0.412987
O62	O	-0.346620	-0.984873	-0.162987
O63	O	-0.096620	-0.734873	0.087013
O64	O	0.153380	-0.484873	0.337013
O65	O	-0.596119	-1.127576	-0.509945
O66	O	-0.346119	-0.877576	-0.259945
O67	O	-0.096119	-0.627576	-0.009945
O68	O	0.153881	-0.377576	0.240055
C69	C	-0.623241	-1.181228	-0.461478
C70	C	-0.373241	-0.931228	-0.211478
C71	C	-0.123241	-0.681228	0.038522
C72	C	0.126759	-0.431228	0.288522
C73	C	-0.705558	-1.181256	-0.461497
C74	C	-0.455558	-0.931256	-0.211497
C75	C	-0.205558	-0.681256	0.038503
C76	C	0.044442	-0.431256	0.288503
C77	C	-0.420584	-0.965287	-0.450543
C78	C	-0.170584	-0.715287	-0.200543
C79	C	0.079416	-0.465287	0.049457
C80	C	0.329416	-0.215287	0.299457
C81	C	-0.416216	-0.872859	-0.445872
C82	C	-0.166216	-0.622859	-0.195872
C83	C	0.083784	-0.372859	0.054128
C84	C	0.333784	-0.122859	0.304128
C85	C	-0.440067	-1.170389	-0.678403
C86	C	-0.190067	-0.920389	-0.428403
C87	C	0.059933	-0.670389	-0.178403
C88	C	0.309933	-0.420389	0.071597
C89	C	-0.444000	-1.165724	-0.770830
C90	C	-0.194000	-0.915724	-0.520830
C91	C	0.056000	-0.665724	-0.270830
C92	C	0.306000	-0.415724	-0.020830
C93	C	-1.004659	-1.181436	-0.461551
C94	C	-0.754659	-0.931436	-0.211551
C95	C	-0.504659	-0.681436	0.038449
C96	C	-0.254659	-0.431436	0.288449
C97	C	-0.973063	-1.114068	-0.522721
C98	C	-0.723063	-0.864068	-0.272721
C99	C	-0.473063	-0.614068	-0.022721
C100	C	-0.223063	-0.364068	0.227279
C101	C	-0.887422	-1.113774	-0.522504
C102	C	-0.637422	-0.863774	-0.272504
C103	C	-0.387422	-0.613774	-0.022504
C104	C	-0.137422	-0.363774	0.227496
C105	C	-0.856271	-1.181346	-0.461525
C106	C	-0.606271	-0.931346	-0.211525
C107	C	-0.356271	-0.681346	0.038475
C108	C	-0.106271	-0.431346	0.288475
C109	C	-0.882548	-1.162064	-0.372686
C110	C	-0.632548	-0.912064	-0.122686
C111	C	-0.382548	-0.662064	0.127314
C112	C	-0.132548	-0.412064	0.377314
C113	C	-0.968190	-1.161632	-0.373050
C114	C	-0.718190	-0.911632	-0.123050
C115	C	-0.468190	-0.661632	0.126950
C116	C	-0.218190	-0.411632	0.376950
C117	C	-0.978132	-1.268265	-0.488456
C118	C	-0.728132	-1.018265	-0.238456
C119	C	-0.478132	-0.768265	0.011544
C120	C	-0.228132	-0.518265	0.261544
C121	C	-0.892539	-1.267650	-0.490352
C122	C	-0.642539	-1.017650	-0.240352
C123	C	-0.392539	-0.767650	0.009648
C124	C	-0.142539	-0.517650	0.259648
C125	C	-0.772409	-1.181297	-0.461505
C126	C	-0.522409	-0.931297	-0.211505
C127	C	-0.272409	-0.681297	0.038495
C128	C	-0.022409	-0.431297	0.288495
C129	C	-1.088521	-1.181483	-0.461565
C130	C	-0.838521	-0.931483	-0.211565
C131	C	-0.588521	-0.681483	0.038435
C132	C	-0.338521	-0.431483	0.288435
C133	C	-0.237683	-1.181470	-0.461558
C134	C	0.012317	-0.931470	-0.211558
C135	C	0.262317	-0.681470	0.038442
C136	C	0.512317	-0.431470	0.288442
C137	C	-0.155373	-1.181526	-0.461579
C138	C	0.094627	-0.931526	-0.211579
C139	C	0.344627	-0.681526	0.038421
C140	C	0.594627	-0.431526	0.288421
C141	C	-0.441131	-1.398232	-0.472517
C142	C	-0.191131	-1.148232	-0.222517
C143	C	0.058869	-0.898232	0.027483
C144	C	0.308869	-0.648232	0.277483
C145	C	-0.445517	-1.490660	-0.477208
C146	C	-0.195517	-1.240660	-0.227208
C147	C	0.054483	-0.990660	0.022792
C148	C	0.304483	-0.740660	0.272792
C149	C	-0.408225	-0.703631	-0.437350
C150	C	-0.158225	-0.453631	-0.187350
C151	C	0.091775	-0.203631	0.062650
C152	C	0.341775	0.046369	0.312650
C153	C	-0.453506	-0.659883	-0.485727
C154	C	-0.203506	-0.409883	-0.235727
C155	C	0.046494	-0.159883	0.014273
C156	C	0.296494	0.090117	0.264273
C157	C	-0.449060	-0.565718	-0.480986
C158	C	-0.199060	-0.315718	-0.230986
C159	C	0.050940	-0.065718	0.019014
C160	C	0.300940	0.184282	0.269014
C161	C	-0.412671	-0.797804	-0.442091
C162	C	-0.162671	-0.547804	-0.192091
C163	C	0.087329	-0.297804	0.057909
C164	C	0.337329	-0.047804	0.307909
C165	C	-0.451163	-1.157175	-0.940055
C166	C	-0.201163	-0.907175	-0.690055
C167	C	0.048837	-0.657175	-0.440055
C168	C	0.298837	-0.407175	-0.190055
C169	C	-0.410297	-1.205665	-0.983822
C170	C	-0.160297	-0.955665	-0.733822
C171	C	0.089703	-0.705665	-0.483822
C172	C	0.339703	-0.455665	-0.233822
C173	C	-0.414283	-1.200908	-1.077985
C174	C	-0.164283	-0.950908	-0.827985
C175	C	0.085717	-0.700908	-0.577985
C176	C	0.335717	-0.450908	-0.327985
C177	C	-0.447178	-1.161931	-0.845884
C178	C	-0.197178	-0.911931	-0.595884
C179	C	0.052822	-0.661931	-0.345884
C180	C	0.302822	-0.411931	-0.095884
C181	C	-0.421592	-1.192292	-0.245460
C182	C	-0.171592	-0.942292	0.004540
C183	C	0.078408	-0.692292	0.254540
C184	C	0.328408	-0.442292	0.504540
C185	C	-0.417458	-1.197119	-0.153042
C186	C	-0.167458	-0.947119	0.096958
C187	C	0.082542	-0.697119	0.346958
C188	C	0.332542	-0.447119	0.596958
H189	H	-0.869842	-1.125322	-0.588238
H190	H	-0.619842	-0.875322	-0.338238
H191	H	-0.369842	-0.625322	-0.088238
H192	H	-0.119842	-0.375322	0.161762
H193	H	-0.997097	-1.125459	-0.588658
H194	H	-0.747097	-0.875459	-0.338658
H195	H	-0.497097	-0.625459	-0.088658
H196	H	-0.247097	-0.375459	0.161342
O197	O	-0.501468	-1.097456	-0.984090
O198	O	-0.251468	-0.847456	-0.734090
O199	O	-0.001468	-0.597456	-0.484090
O200	O	0.248532	-0.347456	-0.234090
H201	H	-0.559577	-1.112498	-0.968197
H202	H	-0.309577	-0.862498	-0.718197
H203	H	-0.059577	-0.612498	-0.468197
H204	H	0.190423	-0.362498	-0.218197
H205	H	-0.372317	-1.250750	-0.950575
H206	H	-0.122317	-1.000750	-0.700575
H207	H	0.127683	-0.750750	-0.450575
H208	H	0.377683	-0.500750	-0.200575
H209	H	-0.998637	-1.318402	-0.443958
H210	H	-0.748637	-1.068402	-0.193958
H211	H	-0.498637	-0.818402	0.056042
H212	H	-0.248637	-0.568402	0.306042
H213	H	-0.875783	-1.282271	-0.555755
H214	H	-0.625783	-1.032271	-0.305755
H215	H	-0.375783	-0.782271	-0.055755
H216	H	-0.125783	-0.532271	0.194245
O217	O	-0.996740	-1.029203	-0.498924
O218	O	-0.746740	-0.779203	-0.248924
O219	O	-0.496740	-0.529203	0.001076
O220	O	-0.246740	-0.279203	0.251076
H221	H	-1.030913	-1.034795	-0.443718
H222	H	-0.780913	-0.784795	-0.193718
H223	H	-0.530913	-0.534795	0.056282
H224	H	-0.280913	-0.284795	0.306282
H225	H	-0.495611	-0.693149	-0.530706
H226	H	-0.245611	-0.443149	-0.280706
H227	H	0.004389	-0.193149	-0.030706
H228	H	0.254389	0.056851	0.219294
O229	O	-0.352476	-0.659564	-0.377756
O230	O	-0.102476	-0.409564	-0.127756
O231	O	0.147524	-0.159564	0.122244
O232	O	0.397524	0.090436	0.372244
H233	H	-0.314608	-0.618121	-0.413080
H234	H	-0.064608	-0.368121	-0.163080
H235	H	0.185392	-0.118121	0.086920
H236	H	0.435392	0.131879	0.336920
O237	O	-0.855422	-1.028412	-0.498411
O238	O	-0.605422	-0.778412	-0.248411
O239	O	-0.355422	-0.528412	0.001589
O240	O	-0.105422	-0.278412	0.251589
H241	H	-0.901127	-0.987182	-0.486863
H242	H	-0.651127	-0.737182	-0.236863
H243	H	-0.401127	-0.487182	0.013137
H244	H	-0.151127	-0.237182	0.263137
H245	H	-0.984372	-1.098292	-0.350776
H246	H	-0.734372	-0.848292	-0.100776
H247	H	-0.484372	-0.598292	0.149224
H248	H	-0.234372	-0.348292	0.399224
H249	H	-0.988900	-1.208812	-0.325680
H250	H	-0.738900	-0.958812	-0.075680
H251	H	-0.488900	-0.708812	0.174320
H252	H	-0.238900	-0.458812	0.424320
H253	H	-0.862211	-1.209784	-0.325672
H254	H	-0.612211	-0.959784	-0.075672
H255	H	-0.362211	-0.709784	0.174328
H256	H	-0.112211	-0.459784	0.424328
H257	H	-0.857320	-1.099423	-0.350105
H258	H	-0.607320	-0.849423	-0.100105
H259	H	-0.357320	-0.599423	0.149895
H260	H	-0.107320	-0.349423	0.399895
O261	O	-0.864869	-1.337171	-0.436091
O262	O	-0.614869	-1.087171	-0.186091
O263	O	-0.364869	-0.837171	0.063909
O264	O	-0.114869	-0.587171	0.313909
H265	H	-0.837323	-1.382153	-0.474739
H266	H	-0.587323	-1.132153	-0.224739
H267	H	-0.337323	-0.882153	0.025261
H268	H	-0.087323	-0.632153	0.275261
H269	H	-1.003393	-1.286711	-0.552368
H270	H	-0.753393	-1.036711	-0.302368
H271	H	-0.503393	-0.786711	-0.052368
H272	H	-0.253393	-0.536711	0.197632
