data_functionalizedCrystal
_audit_creation_method	'MofGen! by Chris Wilmer'
_symmetry_space_group_name_H-M	'P1'
_symmetry_Int_Tables_number	1
_symmetry_cell_setting	triclinic
loop_
_symmetry_equiv_pos_as_xyz
  x,y,z
_cell_length_a	16.120530
_cell_length_b	16.120256
_cell_length_c	12.827892
_cell_angle_alpha	87.122182
_cell_angle_beta	92.888896
_cell_angle_gamma	90.128265
loop_
_atom_site_label
_atom_site_type_symbol
_atom_site_fract_x
_atom_site_fract_y
_atom_site_fract_z
Zn1	Zn	1.247498	-0.534592	0.529459
Zn2	Zn	1.497498	-0.284592	0.779459
Zn3	Zn	1.747498	-0.034592	1.029459
Zn4	Zn	1.997498	0.215408	1.279459
Zn5	Zn	1.254468	-0.395542	0.695814
Zn6	Zn	1.504468	-0.145542	0.945814
Zn7	Zn	1.754468	0.104458	1.195814
Zn8	Zn	2.004468	0.354458	1.445814
Zn9	Zn	1.115487	-0.388509	0.511794
Zn10	Zn	1.365487	-0.138509	0.761794
Zn11	Zn	1.615487	0.111491	1.011794
Zn12	Zn	1.865487	0.361491	1.261794
Zn13	Zn	1.108424	-0.527512	0.694856
Zn14	Zn	1.358424	-0.277512	0.944856
Zn15	Zn	1.608424	-0.027512	1.194856
Zn16	Zn	1.858424	0.222488	1.444856
O17	O	1.181469	-0.461539	0.607981
O18	O	1.431469	-0.211539	0.857981
O19	O	1.681469	0.038461	1.107981
O20	O	1.931469	0.288461	1.357981
O21	O	1.364790	-0.522054	0.559319
O22	O	1.614790	-0.272054	0.809319
O23	O	1.864790	-0.022054	1.059319
O24	O	2.114790	0.227946	1.309319
O25	O	1.241904	-0.278243	0.664411
O26	O	1.491904	-0.028243	0.914411
O27	O	1.741904	0.221757	1.164411
O28	O	1.991904	0.471757	1.414411
O29	O	1.133038	-0.407907	0.367905
O30	O	1.383038	-0.157907	0.617905
O31	O	1.633038	0.092093	0.867905
O32	O	1.883038	0.342093	1.117905
O33	O	1.369910	-0.419894	0.681540
O34	O	1.619910	-0.169894	0.931540
O35	O	1.869910	0.080106	1.181540
O36	O	2.119910	0.330106	1.431540
O37	O	1.230026	-0.515234	0.380883
O38	O	1.480026	-0.265234	0.630883
O39	O	1.730026	-0.015234	0.880883
O40	O	1.980026	0.234766	1.130883
O41	O	1.139796	-0.273076	0.529213
O42	O	1.389796	-0.023076	0.779213
O43	O	1.639796	0.226924	1.029213
O44	O	1.889796	0.476924	1.279213
O45	O	0.998183	-0.401041	0.528284
O46	O	1.248183	-0.151041	0.778284
O47	O	1.498183	0.098959	1.028284
O48	O	1.748183	0.348959	1.278284
O49	O	1.121000	-0.644818	0.679908
O50	O	1.371000	-0.394818	0.929908
O51	O	1.621000	-0.144818	1.179908
O52	O	1.871000	0.105182	1.429908
O53	O	0.992994	-0.503166	0.662779
O54	O	1.242994	-0.253166	0.912779
O55	O	1.492994	-0.003166	1.162779
O56	O	1.742994	0.246834	1.412779
O57	O	1.223177	-0.650019	0.558391
O58	O	1.473177	-0.400019	0.808391
O59	O	1.723177	-0.150019	1.058391
O60	O	1.973177	0.099981	1.308391
O61	O	1.235055	-0.413029	0.841919
O62	O	1.485055	-0.163029	1.091919
O63	O	1.735055	0.086971	1.341919
O64	O	1.985055	0.336971	1.591919
O65	O	1.127758	-0.509986	0.841216
O66	O	1.377758	-0.259986	1.091216
O67	O	1.627758	-0.009986	1.341216
O68	O	1.877758	0.240014	1.591216
C69	C	0.965416	-0.450573	0.593512
C70	C	1.215416	-0.200573	0.843512
C71	C	1.465416	0.049427	1.093512
C72	C	1.715416	0.299427	1.343512
C73	C	0.872986	-0.445901	0.587348
C74	C	1.122986	-0.195901	0.837348
C75	C	1.372986	0.054099	1.087348
C76	C	1.622986	0.304099	1.337348
C77	C	0.703755	-0.437379	0.576072
C78	C	0.953755	-0.187379	0.826072
C79	C	1.203755	0.062621	1.076072
C80	C	1.453755	0.312621	1.326072
C81	C	0.660021	-0.485759	0.639970
C82	C	0.910021	-0.235759	0.889970
C83	C	1.160021	0.014241	1.139970
C84	C	1.410021	0.264241	1.389970
C85	C	0.565855	-0.481018	0.633696
C86	C	0.815855	-0.231018	0.883696
C87	C	1.065855	0.018982	1.133696
C88	C	1.315855	0.268982	1.383696
C89	C	0.797929	-0.442120	0.582345
C90	C	1.047929	-0.192120	0.832345
C91	C	1.297929	0.057880	1.082345
C92	C	1.547929	0.307880	1.332345
C93	C	1.170523	-0.678435	0.621013
C94	C	1.420523	-0.428435	0.871013
C95	C	1.670523	-0.178435	1.121013
C96	C	1.920523	0.071565	1.371013
C97	C	1.165859	-0.770863	0.626567
C98	C	1.415859	-0.520863	0.876567
C99	C	1.665859	-0.270863	1.126567
C100	C	1.915859	-0.020863	1.376567
C101	C	1.205792	-0.983844	0.578992
C102	C	1.455792	-0.733844	0.828992
C103	C	1.705792	-0.483844	1.078992
C104	C	1.955792	-0.233844	1.328992
C105	C	1.157315	-0.940083	0.636661
C106	C	1.407315	-0.690083	0.886661
C107	C	1.657315	-0.440083	1.136661
C108	C	1.907315	-0.190083	1.386661
C109	C	1.162070	-0.845920	0.631043
C110	C	1.412070	-0.595920	0.881043
C111	C	1.662070	-0.345920	1.131043
C112	C	1.912070	-0.095920	1.381043
C113	C	1.201038	-1.078016	0.584609
C114	C	1.451038	-0.828016	0.834609
C115	C	1.701038	-0.578016	1.084609
C116	C	1.951038	-0.328016	1.334609
C117	C	1.398367	-0.472548	0.622507
C118	C	1.648367	-0.222548	0.872507
C119	C	1.898367	0.027452	1.122507
C120	C	2.148367	0.277452	1.372507
C121	C	1.490795	-0.477240	0.628697
C122	C	1.740795	-0.227240	0.878697
C123	C	1.990795	0.022760	1.128697
C124	C	2.240795	0.272760	1.378697
C125	C	1.181418	-0.461522	0.879486
C126	C	1.431418	-0.211522	1.129486
C127	C	1.681418	0.038478	1.379486
C128	C	1.931418	0.288478	1.629486
C129	C	1.181471	-0.461546	0.995644
C130	C	1.431471	-0.211546	1.245644
C131	C	1.681471	0.038454	1.495644
C132	C	1.931471	0.288454	1.745644
C133	C	1.192420	-0.245489	0.594927
C134	C	1.442420	0.004511	0.844927
C135	C	1.692420	0.254511	1.094927
C136	C	1.942420	0.504511	1.344927
C137	C	1.197246	-0.153070	0.589089
C138	C	1.447246	0.096930	0.839089
C139	C	1.697246	0.346930	1.089089
C140	C	1.947246	0.596930	1.339089
C141	C	1.181542	-0.461576	0.335417
C142	C	1.431542	-0.211576	0.585417
C143	C	1.681542	0.038424	0.835417
C144	C	1.931542	0.288424	1.085417
C145	C	1.181574	-0.461591	0.219267
C146	C	1.431574	-0.211591	0.469267
C147	C	1.681574	0.038409	0.719267
C148	C	1.931574	0.288409	0.969267
C149	C	1.234622	-0.413627	1.047750
C150	C	1.484622	-0.163627	1.297750
C151	C	1.734622	0.086373	1.547750
C152	C	1.984622	0.336373	1.797750
C153	C	1.234678	-0.413651	1.167805
C154	C	1.484678	-0.163651	1.417805
C155	C	1.734678	0.086349	1.667805
C156	C	1.984678	0.336349	1.917805
H157	H	0.670478	-0.392402	0.516660
H158	H	0.920478	-0.142402	0.766660
H159	H	1.170478	0.107598	1.016660
H160	H	1.420478	0.357598	1.266660
H161	H	1.250864	-0.950593	0.525405
H162	H	1.500864	-0.700593	0.775405
H163	H	1.750864	-0.450593	1.025405
H164	H	2.000864	-0.200593	1.275405
H165	H	1.112236	-0.973337	0.690247
H166	H	1.362236	-0.723337	0.940247
H167	H	1.612236	-0.473337	1.190247
H168	H	1.862236	-0.223337	1.440247
H169	H	1.280090	-0.372587	1.003482
H170	H	1.530090	-0.122587	1.253482
H171	H	1.780090	0.127413	1.503482
H172	H	2.030090	0.377413	1.753482
F173	F	1.294155	-0.360022	1.226369
F174	F	1.544155	-0.110022	1.476369
F175	F	1.794155	0.139978	1.726369
F176	F	2.044155	0.389978	1.976369
F177	F	1.122048	-0.515198	1.053505
F178	F	1.372048	-0.265198	1.303505
F179	F	1.622048	-0.015198	1.553505
F180	F	1.872048	0.234802	1.803505
F181	F	0.703516	-0.544558	0.717628
F182	F	0.953516	-0.294558	0.967628
F183	F	1.203516	-0.044558	1.217628
F184	F	1.453516	0.205442	1.467628
F185	F	1.122087	-0.515213	1.160710
F186	F	1.372087	-0.265213	1.410710
F187	F	1.622087	-0.015213	1.660710
F188	F	1.872087	0.234787	1.910710
