data_functionalizedCrystal
_audit_creation_method	'MofGen! by Chris Wilmer'
_symmetry_space_group_name_H-M	'P1'
_symmetry_Int_Tables_number	1
_symmetry_cell_setting	triclinic
loop_
_symmetry_equiv_pos_as_xyz
  x,y,z
_cell_length_a	14.044220
_cell_length_b	14.044220
_cell_length_c	13.101039
_cell_angle_alpha	86.332523
_cell_angle_beta	86.340132
_cell_angle_gamma	86.811122
loop_
_atom_site_label
_atom_site_type_symbol
_atom_site_fract_x
_atom_site_fract_y
_atom_site_fract_z
O1	O	1.281968	-0.225348	-0.085109
O2	O	1.005298	-0.217041	-0.085135
O3	O	1.139480	-0.082860	-0.085112
O4	O	1.147787	-0.359530	-0.085132
O5	O	1.129854	-0.092504	0.085316
O6	O	0.995673	-0.226686	0.085293
O7	O	1.272343	-0.234993	0.085319
Zn8	Zn	1.132479	-0.232371	0.112365
Zn9	Zn	1.145162	-0.219663	-0.112181
O10	O	1.138161	-0.369175	0.085296
C11	C	0.964864	-0.218228	0.000076
C12	C	0.858722	-0.207383	0.000066
C13	C	0.664383	-0.187558	0.000088
C14	C	0.613253	-0.264472	0.000087
C15	C	0.505116	-0.253441	0.000099
C16	C	0.772529	-0.198587	0.000076
C17	C	1.131031	-0.052060	0.000102
C18	C	1.120187	0.054083	0.000102
C19	C	1.312777	-0.233806	0.000106
C20	C	1.418920	-0.244651	0.000109
C21	C	1.146610	-0.399974	0.000080
C22	C	1.157455	-0.506116	0.000073
N23	N	1.123831	-0.241043	0.265612
C24	C	1.100362	0.248421	0.000086
C25	C	1.177276	0.299551	0.000090
C26	C	1.166245	0.407688	0.000080
C27	C	1.111391	0.140275	0.000095
N28	N	1.153817	-0.210984	-0.265428
C29	C	1.112065	-0.252851	0.474653
C30	C	1.165580	-0.199179	0.525538
C31	C	1.159034	-0.205749	0.641855
C32	C	1.118610	-0.246282	0.358325
H33	H	0.626945	-0.113431	0.000099
O34	O	0.657757	-0.352987	0.000111
C35	C	0.588921	-0.422332	0.000080
H36	H	0.517148	-0.391792	0.032363
H37	H	0.581718	-0.443076	-0.081688
C38	C	0.708563	-0.548822	0.027241
C39	C	0.620413	-0.511315	0.066899
H40	H	0.727990	-0.603714	0.068454
H41	H	0.754941	-0.502104	0.027258
H42	H	0.702550	-0.566102	-0.040898
H43	H	0.626431	-0.494026	0.135031
H44	H	0.574037	-0.558033	0.066895
O45	O	1.265676	0.254794	-0.000027
C46	C	1.281635	0.202335	-0.088297
H47	H	1.210116	0.185675	-0.117740
H48	H	1.323717	0.246182	-0.150100
C49	C	1.426673	0.128767	-0.025300
C50	C	1.338831	0.108298	-0.061457
H51	H	1.461958	0.070763	-0.008747
H52	H	1.415924	0.164113	0.034168
H53	H	1.461729	0.165308	-0.076809
H54	H	1.303771	0.071768	-0.009944
H55	H	1.349576	0.072944	-0.120916
O56	O	1.011992	0.293226	0.000127
C57	C	1.020515	0.392785	0.000097
H58	H	1.091259	0.407922	0.032360
H59	H	1.018202	0.425524	-0.081667
C60	C	0.850498	0.418275	0.027308
C61	C	0.937383	0.436866	0.066942
H62	H	0.799217	0.445468	0.068537
H63	H	0.844755	0.351201	0.027324
H64	H	0.848584	0.445559	-0.040828
H65	H	0.939301	0.409573	0.135071
H66	H	0.943125	0.503937	0.066938
O67	O	1.225901	-0.138367	0.473143
C68	C	1.218941	-0.145105	0.366987
H69	H	1.190856	-0.217315	0.352388
H70	H	1.167832	-0.085527	0.336714
C71	C	1.352808	-0.046712	0.329573
C72	C	1.318322	-0.135405	0.311642
H73	H	1.414110	-0.040724	0.295431
H74	H	1.357496	-0.042169	0.401091
H75	H	1.310208	0.002927	0.304345
H76	H	1.360915	-0.185041	0.336881
H77	H	1.313643	-0.139956	0.240125
H78	H	1.061336	-0.303733	0.518442
