data_functionalizedCrystal
_audit_creation_method	'MofGen! by Chris Wilmer'
_symmetry_space_group_name_H-M	'P1'
_symmetry_Int_Tables_number	1
_symmetry_cell_setting	triclinic
loop_
_symmetry_equiv_pos_as_xyz
  x,y,z
_cell_length_a	18.627263
_cell_length_b	18.627226
_cell_length_c	18.627297
_cell_angle_alpha	120.004257
_cell_angle_beta	89.999758
_cell_angle_gamma	60.000314
loop_
_atom_site_label
_atom_site_type_symbol
_atom_site_fract_x
_atom_site_fract_y
_atom_site_fract_z
O1	O	-0.492472	-0.633254	-0.021364
O2	O	-0.388078	-0.486243	0.021251
O3	O	-0.388073	-0.633252	-0.125763
O4	O	-0.492476	-0.486246	0.125650
O5	O	-0.507480	-0.513842	-0.125750
O6	O	-0.507484	-0.366834	0.021264
O7	O	-0.611878	-0.513845	-0.021351
Zn8	Zn	-0.578640	-0.421380	-0.000042
Zn9	Zn	-0.421316	-0.578708	-0.000059
O10	O	-0.611883	-0.366836	0.125663
C11	C	-0.386972	-0.226052	0.030933
C12	C	-0.431269	-0.137457	0.024830
C13	C	-0.430378	-0.269043	0.031546
C14	C	-0.256974	-0.356049	0.030940
C15	C	-0.162277	-0.406446	0.024843
C16	C	-0.300578	-0.398842	0.031553
C17	C	-0.386977	-0.356045	0.030945
C18	C	-0.431279	-0.406439	0.024854
C19	C	-0.300573	-0.269046	0.031541
C20	C	-0.612967	-0.774064	-0.031073
C21	C	-0.568663	-0.862671	-0.024986
C22	C	-0.699367	-0.731067	-0.031676
C23	C	-0.612973	-0.644053	-0.031059
C24	C	-0.568675	-0.593652	-0.024958
C25	C	-0.699373	-0.601254	-0.031662
C26	C	-0.742973	-0.644055	-0.031059
C27	C	-0.837671	-0.593656	-0.024957
C28	C	-0.569565	-0.731065	-0.031676
C29	C	-0.386972	-0.644049	-0.387063
C30	C	-0.431273	-0.593650	-0.431359
C31	C	-0.300570	-0.731061	-0.430476
C32	C	-0.386972	-0.644049	-0.257062
C33	C	-0.431274	-0.593649	-0.162360
C34	C	-0.300570	-0.731060	-0.300672
C35	C	-0.256967	-0.774057	-0.387075
C36	C	-0.162267	-0.862663	-0.431384
C37	C	-0.430378	-0.601250	-0.300660
O38	O	0.125729	-0.513858	-0.021361
O39	O	-0.125673	-0.366850	0.021239
O40	O	0.021337	-0.513878	-0.125769
O41	O	-0.021281	-0.366830	0.125647
O42	O	0.021332	-0.633272	-0.125758
O43	O	-0.125678	-0.486244	0.021250
O44	O	0.125723	-0.633252	-0.021351
Zn45	Zn	0.000022	-0.578705	-0.000049
Zn46	Zn	0.000029	-0.421397	-0.000063
O47	O	-0.021286	-0.486224	0.125658
O48	O	-0.611861	0.104325	-0.021388
O49	O	-0.507471	-0.104455	0.021231
O50	O	-0.507458	-0.104488	-0.125785
O51	O	-0.611874	0.104358	0.125627
O52	O	-0.388054	-0.104491	-0.125790
O53	O	-0.388067	-0.104458	0.021226
O54	O	-0.492458	0.104323	-0.021393
Zn55	Zn	-0.421305	-0.000068	-0.000084
Zn56	Zn	-0.578624	-0.000065	-0.000078
O57	O	-0.492471	0.104355	0.125623
O58	O	0.125740	-1.104478	-0.492601
O59	O	-0.125666	-0.895666	-0.388186
O60	O	0.021333	-0.895665	-0.388184
O61	O	-0.021259	-1.104480	-0.492604
O62	O	0.021336	-0.895668	-0.507587
O63	O	-0.125662	-0.895670	-0.507590
O64	O	0.125743	-1.104481	-0.612004
Zn65	Zn	0.000041	-1.000076	-0.578755
Zn66	Zn	0.000036	-1.000072	-0.421436
O67	O	-0.021255	-1.104483	-0.612007
O68	O	-0.492482	-0.486240	-0.611947
O69	O	-0.388073	-0.633252	-0.507566
O70	O	-0.388080	-0.486241	-0.507549
O71	O	-0.492474	-0.633251	-0.611964
O72	O	-0.507485	-0.366833	-0.388135
O73	O	-0.507478	-0.513845	-0.388151
O74	O	-0.611886	-0.366832	-0.492533
Zn75	Zn	-0.578640	-0.421380	-0.421382
Zn76	Zn	-0.421319	-0.578705	-0.578716
O77	O	-0.611879	-0.513844	-0.492549
C78	C	-0.742991	-0.226029	0.386974
C79	C	-0.837691	-0.137423	0.431282
C80	C	-0.699388	-0.269025	0.430375
C81	C	-0.612985	-0.356038	0.256962
C82	C	-0.568682	-0.406439	0.162260
C83	C	-0.569580	-0.398837	0.300561
C84	C	-0.612987	-0.356036	0.386964
C85	C	-0.568686	-0.406435	0.431260
C86	C	-0.699387	-0.269027	0.300571
C87	C	0.031017	-0.774100	-0.387066
C88	C	0.024915	-0.862701	-0.431360
C89	C	0.031625	-0.731114	-0.430477
C90	C	0.031024	-0.644088	-0.257067
C91	C	0.024932	-0.593680	-0.162367
C92	C	0.031633	-0.601300	-0.300676
C93	C	0.031022	-0.644107	-0.387077
C94	C	0.024926	-0.593719	-0.431384
C95	C	0.031627	-0.731095	-0.300664
C96	C	-0.030971	-0.355995	0.386966
C97	C	-0.024876	-0.406382	0.431273
C98	C	-0.031574	-0.268988	0.430366
C99	C	-0.030974	-0.356014	0.256956
C100	C	-0.024881	-0.406422	0.162255
C101	C	-0.031576	-0.269007	0.300553
C102	C	-0.030965	-0.226002	0.386954
C103	C	-0.024863	-0.137402	0.431249
C104	C	-0.031582	-0.398802	0.300565
C105	C	-0.256934	-0.356141	-0.387100
C106	C	-0.162233	-0.406545	-0.431403
C107	C	-0.300533	-0.398945	-0.430504
C108	C	-0.386944	-0.226117	-0.257092
C109	C	-0.431252	-0.137499	-0.162391
C110	C	-0.430346	-0.269118	-0.300695
C111	C	-0.386935	-0.356140	-0.387097
C112	C	-0.431233	-0.406544	-0.431397
C113	C	-0.300542	-0.269119	-0.300697
O114	O	-0.021314	-0.366913	-0.492588
O115	O	0.021311	-0.513904	-0.388181
O116	O	-0.125701	-0.366928	-0.388190
O117	O	0.125699	-0.513889	-0.492578
O118	O	-0.125670	-0.486364	-0.507605
O119	O	0.021343	-0.633340	-0.507596
O120	O	-0.021282	-0.486349	-0.612002
Zn121	Zn	0.000035	-0.578808	-0.578759
Zn122	Zn	-0.000006	-0.421445	-0.421425
O123	O	0.125730	-0.633325	-0.611993
C124	C	-0.612996	0.356008	0.386935
C125	C	-0.568699	0.406412	0.431236
C126	C	-0.699398	0.398812	0.430342
C127	C	-0.612985	0.225984	0.256930
C128	C	-0.568677	0.137366	0.162229
C129	C	-0.699388	0.268986	0.300534
C130	C	-0.742997	0.356007	0.386937
C131	C	-0.837697	0.406411	0.431239
C132	C	-0.569585	0.268986	0.300533
H133	H	-0.265572	-0.233058	0.032521
C134	C	-0.032878	-0.220388	0.526265
C135	C	-0.109463	-0.110130	0.598619
C136	C	-0.110761	-0.061544	0.694512
C137	C	-0.035475	-0.123216	0.718052
C138	C	0.041116	-0.233481	0.645696
C139	C	0.042414	-0.282067	0.549802
H140	H	-0.165200	-0.064471	0.581196
H141	H	-0.167459	0.020081	0.748075
H142	H	-0.036436	-0.087250	0.789038
H143	H	0.096852	-0.279140	0.663119
H144	H	0.099112	-0.363692	0.496240
H145	H	-0.734368	-0.767057	-0.032655
H146	H	0.032609	-0.767116	-0.501471
H147	H	-0.265534	-0.233135	-0.265694
H148	H	-0.734387	0.232993	0.265524
C149	C	-0.253271	-0.779683	-0.253396
C150	C	-0.291196	-0.818345	-0.219731
C151	C	-0.243895	-0.866970	-0.172461
C152	C	-0.158668	-0.876933	-0.158856
C153	C	-0.120738	-0.838269	-0.192522
C154	C	-0.168040	-0.789644	-0.239792
H155	H	-0.354290	-0.810972	-0.229801
H156	H	-0.271973	-0.895592	-0.147539
H157	H	-0.123653	-0.912928	-0.123864
H158	H	-0.057644	-0.845642	-0.182451
H159	H	-0.139961	-0.761023	-0.264713
C160	C	-0.746709	0.493415	0.526244
C161	C	-0.780382	0.489168	0.598578
C162	C	-0.827697	0.583770	0.694474
C163	C	-0.841339	0.682618	0.718036
C164	C	-0.807665	0.686869	0.645699
C165	C	-0.760350	0.592267	0.549803
H166	H	-0.770284	0.415991	0.581138
H167	H	-0.852624	0.580622	0.748022
H168	H	-0.876364	0.752648	0.789024
H169	H	-0.817763	0.760046	0.663139
H170	H	-0.735423	0.595414	0.496255
C171	C	-0.473678	0.220350	0.253228
C172	C	-0.450087	0.281964	0.239572
C173	C	-0.354184	0.233321	0.192263
C174	C	-0.281873	0.123063	0.158612
C175	C	-0.305462	0.061442	0.172268
C176	C	-0.401365	0.110085	0.219576
H177	H	-0.503619	0.363589	0.264483
H178	H	-0.336723	0.278937	0.182155
H179	H	-0.210879	0.087054	0.123591
H180	H	-0.251931	-0.020183	0.147356
H181	H	-0.418827	0.064469	0.229685
C182	C	-0.253294	-0.493410	0.032890
C183	C	-0.291232	-0.489108	0.109502
C184	C	-0.243951	-0.583669	0.110844
C185	C	-0.158731	-0.682532	0.035574
C186	C	-0.120788	-0.686838	-0.041044
C187	C	-0.168069	-0.592277	-0.042386
H188	H	-0.354321	-0.415920	0.165227
H189	H	-0.272039	-0.580481	0.167563
H190	H	-0.123730	-0.752532	0.036567
H191	H	-0.057699	-0.760026	-0.096769
H192	H	-0.139981	-0.595465	-0.099104
C193	C	-0.473661	-0.779673	-0.033008
C194	C	-0.401333	-0.889935	-0.109609
C195	C	-0.305432	-0.938538	-0.110944
C196	C	-0.281860	-0.876880	-0.035677
C197	C	-0.354190	-0.766612	0.040929
C198	C	-0.450090	-0.718009	0.042264
H199	H	-0.418781	-0.935584	-0.165331
H200	H	-0.251889	-1.020166	-0.167654
H201	H	-0.210868	-0.912860	-0.036665
H202	H	-0.336742	-0.720964	0.096651
H203	H	-0.503634	-0.636381	0.098974
H204	H	-0.734394	-0.233024	0.501373
C205	C	-0.032900	-0.220395	0.253266
C206	C	-0.109492	-0.181735	0.219605
C207	C	-0.110818	-0.133120	0.172324
C208	C	-0.035552	-0.123165	0.158704
C209	C	0.041046	-0.161826	0.192365
C210	C	0.042372	-0.210441	0.239646
H211	H	-0.165214	-0.189103	0.229687
H212	H	-0.167521	-0.104500	0.147406
H213	H	-0.036533	-0.087177	0.123704
H214	H	0.096768	-0.154458	0.182283
H215	H	0.099075	-0.239061	0.264564
H216	H	-0.501360	-0.531216	-0.265642
C217	C	-0.526291	-0.220429	0.032906
C218	C	-0.598603	-0.110169	0.109523
C219	C	-0.694518	-0.061556	0.110902
C220	C	-0.718121	-0.123204	0.035665
C221	C	-0.645808	-0.233470	-0.040957
C222	C	-0.549893	-0.282083	-0.042336
H223	H	-0.581132	-0.064528	0.165223
H224	H	-0.748049	0.020071	0.167623
H225	H	-0.789123	-0.087217	0.036686
H226	H	-0.663279	-0.279112	-0.096657
H227	H	-0.496362	-0.363711	-0.099057
H228	H	-0.265567	-0.767045	-0.501469
H229	H	-0.498589	-0.468854	0.265545
C230	C	-0.746687	-0.220391	0.253304
C231	C	-0.760318	-0.282017	0.168076
C232	C	-0.807622	-0.233372	0.120820
C233	C	-0.841293	-0.123102	0.158792
C234	C	-0.827663	-0.061470	0.244025
C235	C	-0.780359	-0.110114	0.291281
H236	H	-0.735392	-0.363651	0.139963
H237	H	-0.817712	-0.278997	0.057726
H238	H	-0.876310	-0.087092	0.123811
H239	H	-0.852589	0.020165	0.272138
H240	H	-0.770269	-0.064490	0.354375
C241	C	-0.746674	-0.506674	-0.032983
C242	C	-0.831907	-0.407833	0.042285
C243	C	-0.879208	-0.313260	0.040960
C244	C	-0.841278	-0.317529	-0.035633
C245	C	-0.756040	-0.416375	-0.110906
C246	C	-0.708738	-0.510948	-0.109581
H247	H	-0.859990	-0.404669	0.098989
H248	H	-0.942307	-0.240088	0.096683
H249	H	-0.876293	-0.247521	-0.036614
H250	H	-0.727957	-0.419539	-0.167610
H251	H	-0.645640	-0.584120	-0.165304
C252	C	0.032949	-0.506713	-0.253387
C253	C	-0.042322	-0.407875	-0.239770
C254	C	-0.041010	-0.313289	-0.192481
C255	C	0.035573	-0.317542	-0.158810
C256	C	0.110851	-0.416384	-0.172426
C257	C	0.109538	-0.510969	-0.219715
H258	H	-0.099019	-0.404724	-0.264696
H259	H	-0.096736	-0.240120	-0.182401
H260	H	0.036545	-0.247524	-0.123804
H261	H	0.167548	-0.419535	-0.147500
H262	H	0.165264	-0.584139	-0.229795
C263	C	-0.032907	-0.493383	0.253270
C264	C	-0.109495	-0.489115	0.291208
C265	C	-0.110819	-0.583693	0.243910
C266	C	-0.035555	-0.682538	0.158674
C267	C	0.041039	-0.686809	0.120732
C268	C	0.042363	-0.592232	0.168030
H269	H	-0.165215	-0.415941	0.354308
H270	H	-0.167520	-0.580530	0.271998
H271	H	-0.036536	-0.752550	0.123661
H272	H	0.096759	-0.759984	0.057631
H273	H	0.099063	-0.595394	0.139942
C274	C	-0.526251	-0.220506	-0.253410
C275	C	-0.598579	-0.110248	-0.219746
C276	C	-0.694480	-0.061642	-0.172468
C277	C	-0.718053	-0.123293	-0.158855
C278	C	-0.645723	-0.233557	-0.192520
C279	C	-0.549822	-0.282163	-0.239798
H280	H	-0.581131	-0.064605	-0.229823
H281	H	-0.748023	0.019983	-0.147547
H282	H	-0.789044	-0.087311	-0.123857
H283	H	-0.663171	-0.279200	-0.182443
H284	H	-0.496278	-0.363789	-0.264719
C285	C	-0.253243	-0.493548	-0.526406
C286	C	-0.291164	-0.489300	-0.598739
C287	C	-0.243880	-0.583902	-0.694636
C288	C	-0.158673	-0.682751	-0.718198
C289	C	-0.120747	-0.687002	-0.645863
C290	C	-0.168032	-0.592400	-0.549967
H291	H	-0.354244	-0.416123	-0.581299
H292	H	-0.271956	-0.580755	-0.748183
H293	H	-0.123670	-0.752781	-0.789186
H294	H	-0.057668	-0.760179	-0.663303
H295	H	-0.139956	-0.595547	-0.496419
H296	H	0.032600	-0.767072	-0.265655
