data_functionalizedCrystal
_audit_creation_method	'MofGen! by Chris Wilmer'
_symmetry_space_group_name_H-M	'P1'
_symmetry_Int_Tables_number	1
_symmetry_cell_setting	triclinic
loop_
_symmetry_equiv_pos_as_xyz
  x,y,z
_cell_length_a	19.188905
_cell_length_b	15.995300
_cell_length_c	14.472310
_cell_angle_alpha	90.003476
_cell_angle_beta	90.020135
_cell_angle_gamma	96.696818
loop_
_atom_site_label
_atom_site_type_symbol
_atom_site_fract_x
_atom_site_fract_y
_atom_site_fract_z
O1	O	0.926415	-0.104430	0.076984
O2	O	0.723135	-0.118525	0.076951
O3	O	0.830350	0.010434	0.076973
O4	O	0.819200	-0.233389	0.076962
O5	O	0.830323	0.010426	-0.076709
O6	O	0.723108	-0.118532	-0.076731
O7	O	0.926388	-0.104438	-0.076698
Cu8	Cu	0.824745	-0.111486	-0.090747
Cu9	Cu	0.824778	-0.111477	0.091000
O10	O	0.819173	-0.233397	-0.076720
C11	C	0.697109	-0.118076	0.000106
C12	C	0.619600	-0.116716	0.000094
C13	C	0.583222	-0.116059	0.083869
C14	C	0.510395	-0.114772	0.083880
C15	C	0.473952	-0.114125	0.000113
C16	C	0.510338	-0.114788	-0.083673
C17	C	0.583163	-0.116083	-0.083682
N18	N	0.364801	-0.064445	-0.062226
N19	N	0.295621	-0.063213	-0.062211
C20	C	0.254536	-0.110225	0.000135
N21	N	0.285245	-0.158505	0.062480
N22	N	0.354431	-0.159733	0.062469
C23	C	0.394986	-0.112722	0.000113
C24	C	0.139190	-0.108173	0.083928
C25	C	0.066362	-0.106892	0.083936
C26	C	0.066307	-0.106899	-0.083620
C27	C	0.139133	-0.108189	-0.083626
C28	C	0.175571	-0.108822	0.000151
C29	C	0.829882	0.041624	0.000135
C30	C	0.828519	0.134571	0.000144
C31	C	0.952414	-0.104887	0.000149
C32	C	1.029923	-0.106247	0.000167
C33	C	0.819641	-0.264587	0.000120
C34	C	0.821005	-0.357534	0.000117
C35	C	0.826001	0.304745	0.000135
C36	C	0.902340	0.352499	0.000149
C37	C	0.900947	0.449181	-0.000204
C38	C	0.823523	0.472292	0.000127
C39	C	0.785632	0.431011	-0.087466
C40	C	0.787564	0.334385	-0.087536
C41	C	0.786465	0.334113	0.087235
C42	C	0.786472	0.431058	0.088383
C43	C	0.822118	0.566982	0.000119
C44	C	0.827403	0.210055	0.000136
N45	N	0.824727	-0.111492	-0.218578
C46	C	0.824777	-0.111474	-0.592669
C47	C	0.767216	-0.180247	-0.553515
C48	C	0.767349	-0.180496	-0.446427
C49	C	0.824752	-0.111483	-0.407078
C50	C	0.897600	-0.130290	-0.445904
C51	C	0.897277	-0.130779	-0.553026
C52	C	0.810140	-0.023687	-0.553197
C53	C	0.808469	-0.024279	-0.446070
C54	C	0.824742	-0.111486	-0.302190
C55	C	0.824791	-0.111472	-0.697557
N56	N	0.824801	-0.111465	0.218831
H57	H	0.612885	-0.116575	0.152086
N58	N	0.711688	0.451050	0.095696
H59	H	0.689251	0.423735	0.152985
H60	H	0.711294	0.514037	0.099560
N61	N	0.915096	-0.214116	-0.410362
H62	H	0.920789	-0.252908	-0.464211
H63	H	0.960264	-0.205513	-0.373929
H64	H	0.480770	-0.114238	0.152102
H65	H	0.480661	-0.114263	-0.151877
N66	N	0.942356	0.326671	-0.082918
H67	H	0.917425	0.341049	-0.141262
H68	H	0.991330	0.357640	-0.082304
N69	N	0.741293	0.000351	-0.589030
H70	H	0.718894	-0.045427	-0.631220
H71	H	0.708956	0.007644	-0.535322
N72	N	0.820031	0.468688	-0.174135
H73	H	0.816921	0.531281	-0.175130
H74	H	0.870929	0.458251	-0.175166
H75	H	0.612781	-0.116619	-0.151904
N76	N	0.027126	-0.106180	0.174301
H77	H	0.002586	-0.053750	0.178033
H78	H	-0.008725	-0.157573	0.177990
H79	H	0.168858	-0.108698	0.152144
H80	H	0.910177	-0.194792	-0.578002
H81	H	0.730178	0.302130	0.088061
H82	H	0.713199	-0.169331	-0.420179
H83	H	0.712891	-0.169269	-0.579311
H84	H	0.776432	-0.245031	-0.580425
H85	H	0.776694	-0.245647	-0.420793
N86	N	0.737462	-0.005388	-0.412525
H87	H	0.715929	-0.053107	-0.372230
H88	H	0.743035	0.048574	-0.375624
N89	N	0.027011	-0.106197	-0.173972
H90	H	-0.024644	-0.105274	-0.161256
H91	H	0.045408	-0.054525	-0.210545
N92	N	0.178375	-0.108897	-0.173983
H93	H	0.144240	-0.108293	-0.227050
H94	H	0.214267	-0.057540	-0.177636
N95	N	0.940401	0.487050	0.082931
H96	H	0.958854	0.440942	0.120140
H97	H	0.980936	0.528556	0.061691
H98	H	0.941446	-0.082648	-0.578923
H99	H	0.941456	-0.081520	-0.420412
N100	N	0.860400	0.046663	-0.410606
H101	H	0.848625	0.101837	-0.436799
H102	H	0.858017	0.048504	-0.340933
H103	H	0.852116	0.027488	-0.578515
H104	H	0.933026	0.334139	0.062962
H105	H	0.814847	0.316164	-0.153252
N106	N	0.940180	0.486222	-0.083848
H107	H	0.990367	0.473082	-0.081359
H108	H	0.916965	0.461130	-0.141761
N109	N	0.713319	0.291333	-0.092506
H110	H	0.685949	0.308037	-0.037234
H111	H	0.690320	0.308844	-0.151064
N112	N	0.710274	0.449400	-0.091479
H113	H	0.699948	0.484753	-0.036423
H114	H	0.702363	0.480988	-0.150266
N115	N	0.819767	0.307094	0.175209
H116	H	0.860824	0.275536	0.159490
H117	H	0.836683	0.358439	0.213212
H118	H	0.814142	0.458506	0.153185
