data_functionalizedCrystal
_audit_creation_method	'MofGen! by Chris Wilmer'
_symmetry_space_group_name_H-M	'P1'
_symmetry_Int_Tables_number	1
_symmetry_cell_setting	triclinic
loop_
_symmetry_equiv_pos_as_xyz
  x,y,z
_cell_length_a	14.185569
_cell_length_b	12.837943
_cell_length_c	12.837942
_cell_angle_alpha	85.171060
_cell_angle_beta	104.575716
_cell_angle_gamma	104.576238
loop_
_atom_site_label
_atom_site_type_symbol
_atom_site_fract_x
_atom_site_fract_y
_atom_site_fract_z
O1	O	0.083400	-1.380939	0.293524
O2	O	0.083406	-1.077804	0.280083
O3	O	0.083397	-1.222651	0.135235
O4	O	0.083409	-1.236091	0.438372
O5	O	-0.083441	-1.265441	0.092451
O6	O	-0.083432	-1.120593	0.237299
O7	O	-0.083437	-1.423728	0.250740
Cu8	Cu	-0.098668	-1.276068	0.240113
Cu9	Cu	0.098636	-1.225464	0.290710
O10	O	-0.083428	-1.278881	0.395588
C11	C	-0.000012	-1.060129	0.254149
C12	C	-0.000010	-0.943713	0.240606
N13	N	-0.237441	-1.311667	0.204526
C14	C	-0.000021	-1.239504	0.074774
C15	C	-0.000019	-1.225959	-0.041640
C16	C	-0.605077	-1.085276	0.430799
C17	C	-0.710100	-1.112250	0.403850
C18	C	-0.710069	-1.240546	0.275644
C19	C	-0.605044	-1.213579	0.302578
C20	C	-0.552556	-1.135944	0.380158
C21	C	-0.552523	-1.264248	0.251936
C22	C	-0.447507	-1.237286	0.278873
C23	C	-0.395012	-1.159657	0.356452
C24	C	-0.447540	-1.108983	0.407094
C25	C	-0.605013	-1.341888	0.174363
C26	C	-0.552492	-1.392556	0.123721
C27	C	-0.447474	-1.365590	0.150652
C28	C	-0.394978	-1.287960	0.228231
C29	C	-0.394945	-1.416264	0.100010
C30	C	-0.289929	-1.389302	0.126946
C31	C	-0.289962	-1.260999	0.255168
N32	N	0.237410	-1.189872	0.326290
C33	C	-0.000017	-1.441402	0.276674
C34	C	-0.000013	-1.557816	0.290220
C35	C	-0.000018	-0.718841	0.403433
C36	C	-0.000017	-0.609459	0.390712
C37	C	-0.000013	-0.615565	0.202441
C38	C	-0.000015	-0.724948	0.215163
C39	C	-0.000015	-0.776582	0.315662
C40	C	-0.000010	-0.885965	0.328384
C41	C	-0.000014	-0.892071	0.140112
C42	C	-0.000012	-0.782688	0.127391
C43	C	-0.000002	-1.388784	-0.266510
C44	C	0.000000	-1.376062	-0.375892
C45	C	-0.000006	-1.187793	-0.369786
C46	C	-0.000008	-1.200515	-0.260404
C47	C	-0.000007	-1.301014	-0.208771
C48	C	-0.000017	-1.313737	-0.099388
C49	C	-0.000016	-1.125466	-0.093283
C50	C	-0.000014	-1.112745	-0.202665
C51	C	-0.000008	-1.262027	0.456049
C52	C	-0.000004	-1.275570	0.572466
H53	H	-0.247225	-1.197773	0.318332
Cl54	Cl	-0.000022	-1.440078	-0.034480
H55	H	-0.000011	-1.470617	-0.224471
Cl56	Cl	-0.000008	-0.950874	0.454724
H57	H	-0.000023	-0.740636	0.045565
H58	H	-0.000005	-0.939093	0.068645
Cl59	Cl	0.000011	-1.486406	-0.448475
Cl60	Cl	0.000022	-1.061454	-0.434708
Cl61	Cl	-0.381551	-1.011370	0.504614
Cl62	Cl	-0.000036	-1.015123	-0.020693
Cl63	Cl	-0.776119	-1.048543	0.467529
Cl64	Cl	-0.223901	-1.453006	0.063283
Cl65	Cl	-0.000005	-0.783753	0.529774
Cl66	Cl	-0.262989	-1.125767	0.390321
Cl67	Cl	-0.000007	-0.986407	-0.267584
H68	H	-0.562340	-1.022050	0.493964
H69	H	-0.752817	-1.303761	0.212480
H70	H	-0.595239	-1.455771	0.060558
Cl71	Cl	-0.737035	-1.375784	0.140508
H72	H	-0.000021	-0.562451	0.462184
Cl73	Cl	-0.460940	-1.513870	0.002496
Cl74	Cl	-0.000026	-0.550639	0.076107
