data_functionalizedCrystal
_audit_creation_method	'MofGen! by Chris Wilmer'
_symmetry_space_group_name_H-M	'P1'
_symmetry_Int_Tables_number	1
_symmetry_cell_setting	triclinic
loop_
_symmetry_equiv_pos_as_xyz
  x,y,z
_cell_length_a	21.395362
_cell_length_b	14.908520
_cell_length_c	21.395356
_cell_angle_alpha	86.728885
_cell_angle_beta	90.042977
_cell_angle_gamma	93.337688
loop_
_atom_site_label
_atom_site_type_symbol
_atom_site_fract_x
_atom_site_fract_y
_atom_site_fract_z
Zn1	Zn	0.943511	-0.358806	0.368962
Zn2	Zn	1.443511	0.141194	0.868962
Zn3	Zn	0.937384	-0.509674	0.270229
Zn4	Zn	1.437384	-0.009674	0.770229
Zn5	Zn	0.838725	-0.358873	0.264166
Zn6	Zn	1.338725	0.141127	0.764166
Zn7	Zn	0.832664	-0.509669	0.374933
Zn8	Zn	1.332664	-0.009669	0.874933
O9	O	0.888071	-0.434255	0.319572
O10	O	1.388071	0.065745	0.819572
O11	O	1.030377	-0.378794	0.355903
O12	O	1.530377	0.121206	0.855903
O13	O	0.924269	-0.489700	0.181748
O14	O	1.424269	0.010300	0.681748
O15	O	0.857725	-0.232617	0.273030
O16	O	1.357725	0.267383	0.773030
O17	O	1.025876	-0.489636	0.283364
O18	O	1.525876	0.010364	0.783364
O19	O	0.934711	-0.232568	0.350023
O20	O	1.434711	0.267432	0.850023
O21	O	0.851784	-0.378907	0.177293
O22	O	1.351784	0.121093	0.677293
O23	O	0.750242	-0.378901	0.278821
O24	O	1.250242	0.121099	0.778821
O25	O	0.847396	-0.489626	0.461818
O26	O	1.347396	0.010374	0.961818
O27	O	0.745789	-0.489690	0.360201
O28	O	1.245789	0.010310	0.860201
O29	O	0.928834	-0.378789	0.457430
O30	O	1.428834	0.121211	0.957430
O31	O	0.918392	-0.635921	0.289155
O32	O	1.418392	-0.135921	0.789155
O33	O	0.841455	-0.635917	0.366081
O34	O	1.341455	-0.135917	0.866081
C35	C	0.725281	-0.434303	0.319502
C36	C	1.225281	0.065697	0.819502
C37	C	0.655638	-0.434345	0.319487
C38	C	1.155638	0.065655	0.819487
C39	C	0.878618	-0.668653	0.328937
C40	C	1.378618	-0.168653	0.828937
C41	C	0.874632	-0.768929	0.332965
C42	C	1.374632	-0.268929	0.832965
C43	C	0.620620	-0.492110	0.361805
C44	C	1.120620	0.007890	0.861805
C45	C	0.555186	-0.492088	0.361832
C46	C	1.055186	0.007912	0.861832
C47	C	0.524771	-0.434311	0.319530
C48	C	1.024771	0.065689	0.819530
C49	C	0.559798	-0.376535	0.277209
C50	C	1.059798	0.123465	0.777209
C51	C	0.625231	-0.376552	0.277187
C52	C	1.125231	0.123448	0.777187
C53	C	0.421338	-0.427056	0.262834
C54	C	0.921338	0.072944	0.762834
C55	C	0.355905	-0.427045	0.262855
C56	C	0.855905	0.072955	0.762855
C57	C	0.322953	-0.434252	0.319597
C58	C	0.822953	0.065748	0.819597
C59	C	0.355441	-0.441489	0.376321
C60	C	0.855441	0.058511	0.876321
C61	C	0.420874	-0.441506	0.376299
C62	C	0.920874	0.058494	0.876299
C63	C	0.453820	-0.434285	0.319549
C64	C	0.953820	0.065715	0.819549
C65	C	0.216983	-0.491995	0.361948
C66	C	0.716983	0.008005	0.861948
C67	C	0.151548	-0.491967	0.361976
C68	C	0.651548	0.008033	0.861976
C69	C	0.156161	-0.376419	0.277347
C70	C	0.656161	0.123581	0.777347
C71	C	0.221596	-0.376443	0.277325
C72	C	0.721596	0.123557	0.777325
C73	C	0.252002	-0.434235	0.319624
C74	C	0.752002	0.065765	0.819624
C75	C	0.947338	-0.957302	0.260494
C76	C	1.447338	-0.457302	0.760494
C77	C	0.943594	-1.051521	0.264276
C78	C	1.443594	-0.551521	0.764276
C79	C	0.863405	-1.051586	0.344314
C80	C	1.363405	-0.551586	0.844314
C81	C	0.867148	-0.957368	0.340532
C82	C	1.367148	-0.457368	0.840532
C83	C	0.909116	-0.910229	0.298620
C84	C	1.409116	-0.410229	0.798620
C85	C	0.912856	-0.816009	0.294835
C86	C	1.412856	-0.316009	0.794835
C87	C	0.832670	-0.816076	0.374875
C88	C	1.332670	-0.316076	0.874875
C89	C	0.828926	-0.910295	0.378657
C90	C	1.328926	-0.410295	0.878657
C91	C	1.051496	-0.434208	0.319644
C92	C	1.551496	0.065792	0.819644
C93	C	1.121138	-0.434188	0.319674
C94	C	1.621138	0.065812	0.819674
C95	C	0.888122	-0.434199	0.482993
C96	C	1.388122	0.065801	0.982993
C97	C	0.888144	-0.434176	0.552634
C98	C	1.388144	0.065824	1.052634
C99	C	0.897577	-0.198942	0.310184
C100	C	1.397577	0.301058	0.810184
C101	C	0.901629	-0.098666	0.306184
C102	C	1.401629	0.401334	0.806184
C103	C	0.888058	-0.434246	0.156784
C104	C	1.388058	0.065754	0.656784
C105	C	0.888168	-0.434016	0.087134
C106	C	1.388168	0.065984	0.587134
C107	C	0.850413	-0.376479	0.583017
C108	C	1.350413	0.123521	1.083017
C109	C	0.850411	-0.376462	0.648452
C110	C	1.350411	0.123538	1.148452
C111	C	0.888153	-0.434133	0.683500
C112	C	1.388153	0.065867	1.183500
C113	C	0.925887	-0.491840	0.653110
C114	C	1.425887	0.008160	1.153110
C115	C	0.925883	-0.491862	0.587676
C116	C	1.425883	0.008138	1.087676
C117	C	0.944322	-0.441203	0.787489
C118	C	1.444322	0.058797	1.287489
C119	C	0.944328	-0.441175	0.852921
C120	C	1.444328	0.058825	1.352921
C121	C	0.888166	-0.434072	0.885319
C122	C	1.388166	0.065928	1.385319
C123	C	0.831997	-0.426977	0.852276
C124	C	1.331997	0.073023	1.352276
C125	C	0.831993	-0.426999	0.786843
C126	C	1.331993	0.073001	1.286843
C127	C	0.888162	-0.434116	0.754452
C128	C	1.388162	0.065884	1.254452
C129	C	0.850429	-0.376354	0.986654
C130	C	1.350429	0.123646	1.486654
C131	C	0.850426	-0.376344	1.052090
C132	C	1.350426	0.123656	1.552090
C133	C	0.925908	-0.491717	1.056746
C134	C	1.425908	0.008283	1.556746
C135	C	0.925905	-0.491732	0.991312
C136	C	1.425905	0.008268	1.491312
C137	C	0.888167	-0.434046	0.956269
C138	C	1.388167	0.065954	1.456269
H139	H	0.645373	-0.539168	0.396249
H140	H	1.145373	-0.039168	0.896249
H141	H	0.241742	-0.539049	0.396394
H142	H	0.741742	-0.039049	0.896394
O143	O	0.319908	-0.449239	0.437526
O144	O	0.819908	0.050761	0.937526
H145	H	0.353490	-0.454272	0.476962
H146	H	0.853490	0.045728	0.976962
H147	H	0.786265	-0.421187	0.878653
H148	H	1.286265	0.078813	1.378653
O149	O	0.984828	-1.102282	0.223155
O150	O	1.484828	-0.602282	0.723155
H151	H	1.014991	-1.145118	0.252964
H152	H	1.514991	-0.645118	0.752964
O153	O	0.526995	-0.314218	0.231585
O154	O	1.026995	0.185782	0.731585
H155	H	0.562342	-0.274046	0.202157
H156	H	1.062342	0.225954	0.702157
H157	H	0.794759	-0.948688	0.412782
H158	H	1.294759	-0.448688	0.912782
H159	H	0.123037	-0.539004	0.396440
H160	H	0.623037	-0.039004	0.896440
H161	H	0.819680	-0.329510	0.554490
H162	H	1.319680	0.170490	1.054490
O163	O	1.004909	-0.448822	0.888554
O164	O	1.504909	0.051178	1.388554
H165	H	0.995480	-0.447600	0.939496
H166	H	1.495480	0.052400	1.439496
H167	H	0.250108	-0.329409	0.242862
H168	H	0.750108	0.170591	0.742862
O169	O	0.809725	-0.314145	0.948850
O170	O	1.309725	0.185855	1.448850
H171	H	0.759925	-0.329635	0.961985
H172	H	1.259925	0.170365	1.461985
H173	H	0.801544	-0.777739	0.405918
H174	H	1.301544	-0.277739	0.905918
O175	O	1.004901	-0.448858	0.752546
O176	O	1.504901	0.051142	1.252546
H177	H	1.043960	-0.453771	0.786513
H178	H	1.543960	0.046229	1.286513
H179	H	0.829241	-1.089983	0.378440
H180	H	1.329241	-0.589983	0.878440
O181	O	0.966608	-0.553959	0.958539
O182	O	1.466608	-0.053959	1.458539
H183	H	0.960261	-0.544291	0.907152
H184	H	1.460261	-0.044291	1.407152
O185	O	0.966592	-0.554042	0.690914
O186	O	1.466592	-0.054042	1.190914
H187	H	0.952976	-0.624854	0.681178
H188	H	1.452976	-0.124854	1.181178
H189	H	0.956611	-0.538844	0.562939
H190	H	1.456611	-0.038844	1.062939
H191	H	0.819696	-0.329363	1.076827
H192	H	1.319696	0.170637	1.576827
O193	O	0.123368	-0.314107	0.231714
O194	O	0.623368	0.185893	0.731714
H195	H	0.071984	-0.323804	0.238834
H196	H	0.571984	0.176196	0.738834
H197	H	0.329458	-0.421157	0.216668
H198	H	0.829458	0.078843	0.716668
O199	O	0.958122	-0.765160	0.249637
O200	O	1.458122	-0.265160	0.749637
H201	H	0.984076	-0.813726	0.223767
H202	H	1.484076	-0.313726	0.723767
H203	H	0.819687	-0.329474	0.673195
H204	H	1.319687	0.170526	1.173195
O205	O	0.771418	-0.419341	0.751200
O206	O	1.271418	0.080659	1.251200
H207	H	0.732362	-0.414397	0.784716
H208	H	1.232362	0.085603	1.284716
H209	H	0.447323	-0.447396	0.422485
H210	H	0.947323	0.052604	0.922485
O211	O	0.992599	-0.906450	0.215293
O212	O	1.492599	-0.406450	0.715293
H213	H	1.018551	-0.955013	0.189418
H214	H	1.518551	-0.455013	0.689418
H215	H	0.448162	-0.421183	0.216625
H216	H	0.948162	0.078817	0.716625
H217	H	0.653743	-0.329511	0.242727
H218	H	1.153743	0.170489	0.742727
O219	O	0.966619	-0.553920	1.094538
O220	O	1.466619	-0.053920	1.594538
H221	H	0.960286	-0.544210	1.145143
H222	H	1.460286	-0.044210	1.645143
H223	H	0.526668	-0.539126	0.396295
H224	H	1.026668	-0.039126	0.896295
