data_functionalizedCrystal
_audit_creation_method	'MofGen! by Chris Wilmer'
_symmetry_space_group_name_H-M	'P1'
_symmetry_Int_Tables_number	1
_symmetry_cell_setting	triclinic
loop_
_symmetry_equiv_pos_as_xyz
  x,y,z
_cell_length_a	19.077068
_cell_length_b	19.077241
_cell_length_c	19.076919
_cell_angle_alpha	90.113904
_cell_angle_beta	94.470751
_cell_angle_gamma	85.292229
loop_
_atom_site_label
_atom_site_type_symbol
_atom_site_fract_x
_atom_site_fract_y
_atom_site_fract_z
Zn1	Zn	-0.256332	-1.047582	-0.450414
Zn2	Zn	0.077002	-0.714249	-0.117081
Zn3	Zn	0.410335	-0.380916	0.216253
Zn4	Zn	-0.369488	-1.047495	-0.337255
Zn5	Zn	-0.036155	-0.714162	-0.003922
Zn6	Zn	0.297178	-0.380829	0.329411
Zn7	Zn	-0.255959	-0.934813	-0.328177
Zn8	Zn	0.077374	-0.601480	0.005156
Zn9	Zn	0.410707	-0.268147	0.338489
Zn10	Zn	-0.378906	-0.924921	-0.450353
Zn11	Zn	-0.045573	-0.591588	-0.117019
Zn12	Zn	0.287760	-0.258254	0.216314
O13	O	-0.315171	-0.988703	-0.391550
O14	O	0.018162	-0.655370	-0.058216
O15	O	0.351495	-0.322036	0.275117
O16	O	-0.267556	-1.146062	-0.439228
O17	O	0.065777	-0.812729	-0.105895
O18	O	0.399110	-0.479396	0.227439
O19	O	-0.350331	-1.036651	-0.237563
O20	O	-0.016998	-0.703318	0.095770
O21	O	0.316335	-0.369985	0.429104
O22	O	-0.157199	-0.953949	-0.340619
O23	O	0.176135	-0.620616	-0.007285
O24	O	0.509468	-0.287282	0.326048
O25	O	-0.350692	-1.145999	-0.356091
O26	O	-0.017359	-0.812665	-0.022757
O27	O	0.315975	-0.479332	0.310576
O28	O	-0.157472	-1.036800	-0.430426
O29	O	0.175861	-0.703466	-0.097092
O30	O	0.509195	-0.370133	0.236241
O31	O	-0.266922	-0.953864	-0.230893
O32	O	0.066411	-0.620531	0.102440
O33	O	0.399745	-0.287198	0.435773
O34	O	-0.276054	-0.835009	-0.340559
O35	O	0.057279	-0.501676	-0.007226
O36	O	0.390612	-0.168343	0.326107
O37	O	-0.366744	-0.937089	-0.548849
O38	O	-0.033410	-0.603756	-0.215515
O39	O	0.299923	-0.270422	0.117818
O40	O	-0.366383	-0.827742	-0.430321
O41	O	-0.033050	-0.494408	-0.096987
O42	O	0.300284	-0.161075	0.236346
O43	O	-0.276689	-1.027207	-0.548894
O44	O	0.056645	-0.693874	-0.215561
O45	O	0.389978	-0.360541	0.117773
O46	O	-0.469548	-1.027059	-0.356031
O47	O	-0.136214	-0.693726	-0.022698
O48	O	0.197119	-0.360392	0.310635
O49	O	-0.476467	-0.937004	-0.439123
O50	O	-0.143134	-0.603671	-0.105790
O51	O	0.190200	-0.270338	0.227543
C52	C	-0.322201	-0.805838	-0.384449
C53	C	0.011133	-0.472504	-0.051115
C54	C	0.344466	-0.139171	0.282218
C55	C	-0.325226	-0.727606	-0.381428
C56	C	0.008108	-0.394272	-0.048095
C57	C	0.341441	-0.060939	0.285238
C58	C	-0.283437	-0.690880	-0.423366
C59	C	0.049896	-0.357547	-0.090032
C60	C	0.383230	-0.024213	0.243301
C61	C	-0.286276	-0.617373	-0.420521
C62	C	0.047058	-0.284040	-0.087188
C63	C	0.380391	0.049293	0.246145
C64	C	-0.330907	-0.580593	-0.375743
C65	C	0.002426	-0.247260	-0.042409
C66	C	0.335760	0.086074	0.290924
C67	C	-0.372697	-0.617324	-0.333801
C68	C	-0.039364	-0.283990	-0.000467
C69	C	0.293969	0.049343	0.332866
C70	C	-0.369855	-0.690829	-0.336642
C71	C	-0.036521	-0.357496	-0.003308
C72	C	0.296812	-0.024163	0.330025
C73	C	-0.344039	-0.360751	-0.362593
C74	C	-0.010706	-0.027418	-0.029260
C75	C	0.322628	0.305916	0.304074
C76	C	-0.346880	-0.287240	-0.359757
C77	C	-0.013547	0.046093	-0.026423
C78	C	0.319786	0.379427	0.306910
C79	C	-0.260457	-0.287295	-0.446477
C80	C	0.072876	0.046039	-0.113144
C81	C	0.406209	0.379372	0.220190
C82	C	-0.257622	-0.360802	-0.449317
C83	C	0.075712	-0.027468	-0.115984
C84	C	0.409045	0.305865	0.217349
C85	C	-0.299409	-0.397526	-0.407372
C86	C	0.033924	-0.064193	-0.074039
C87	C	0.367258	0.269140	0.259294
N88	N	-0.333811	-0.505457	-0.372836
N89	N	-0.000478	-0.172124	-0.039503
N90	N	0.332855	0.161210	0.293831
N91	N	-0.296501	-0.472661	-0.410276
N92	N	0.036833	-0.139328	-0.076943
N93	N	0.370166	0.194005	0.256391
C94	C	-0.498628	-0.980967	-0.398572
C95	C	-0.165294	-0.647634	-0.065238
C96	C	0.168039	-0.314301	0.268095
C97	C	-0.577110	-0.977721	-0.401602
C98	C	-0.243776	-0.644388	-0.068269
C99	C	0.089557	-0.311055	0.265065
C100	C	-0.610355	-1.023116	-0.359802
C101	C	-0.277022	-0.689783	-0.026469
C102	C	0.056312	-0.356450	0.306864
C103	C	-0.684097	-1.020067	-0.362657
C104	C	-0.350764	-0.686734	-0.029323
C105	C	-0.017430	-0.353401	0.304010
C106	C	-0.724593	-0.971619	-0.407307
C107	C	-0.391260	-0.638286	-0.073974
C108	C	-0.057926	-0.304953	0.259360
C109	C	-0.691343	-0.926222	-0.449111
C110	C	-0.358009	-0.592889	-0.115778
C111	C	-0.024676	-0.259556	0.217555
C112	C	-0.617602	-0.929275	-0.446260
C113	C	-0.284268	-0.595942	-0.112927
C114	C	0.049065	-0.262609	0.220406
C115	C	-0.945524	-0.957461	-0.420472
C116	C	-0.612191	-0.624127	-0.087139
C117	C	-0.278857	-0.290794	0.246194
C118	C	-1.019270	-0.954410	-0.423319
C119	C	-0.685937	-0.621076	-0.089985
C120	C	-0.352603	-0.287743	0.243348
C121	C	-1.012019	-1.048256	-0.336865
C122	C	-0.678686	-0.714923	-0.003531
C123	C	-0.345353	-0.381589	0.329802
C124	C	-0.938277	-1.051302	-0.334015
C125	C	-0.604944	-0.717968	-0.000681
C126	C	-0.271610	-0.384635	0.332652
C127	C	-0.905033	-1.005907	-0.375821
C128	C	-0.571700	-0.672574	-0.042488
C129	C	-0.238367	-0.339241	0.290845
N130	N	-0.799970	-0.968500	-0.410224
N131	N	-0.466636	-0.635167	-0.076891
N132	N	-0.133303	-0.301834	0.256443
N133	N	-0.829658	-1.009030	-0.372908
N134	N	-0.496325	-0.675697	-0.039574
N135	N	-0.162991	-0.342364	0.293759
C136	C	-0.130999	-0.996487	-0.384516
C137	C	0.202335	-0.663154	-0.051183
C138	C	0.535668	-0.329821	0.282150
C139	C	-0.052515	-0.999805	-0.381519
C140	C	0.280818	-0.666471	-0.048186
C141	C	0.614152	-0.333138	0.285147
C142	C	-0.322808	-0.981054	-0.575122
C143	C	0.010525	-0.647721	-0.241789
C144	C	0.343858	-0.314388	0.091544
C145	C	-0.326063	-0.977795	-0.653350
C146	C	0.007271	-0.644462	-0.320017
C147	C	0.340604	-0.311128	0.013317
C148	C	-0.308111	-0.172283	-0.398673
C149	C	0.025222	0.161051	-0.065340
C150	C	0.358556	0.494384	0.267993
C151	C	-0.305092	-0.250515	-0.401694
C152	C	0.028242	0.082819	-0.068361
C153	C	0.361575	0.416152	0.264972
C154	C	-0.280707	-1.023181	-0.690126
C155	C	0.052627	-0.689848	-0.356793
C156	C	0.385960	-0.356515	-0.023459
C157	C	-0.283762	-1.020110	-0.763629
C158	C	0.049571	-0.686777	-0.430296
C159	C	0.382904	-0.353444	-0.096962
C160	C	-0.332177	-0.971656	-0.800354
C161	C	0.001156	-0.638323	-0.467021
C162	C	0.334489	-0.304989	-0.133688
C163	C	-0.377535	-0.926265	-0.763573
C164	C	-0.044202	-0.592931	-0.430240
C165	C	0.289131	-0.259598	-0.096906
C166	C	-0.374476	-0.929333	-0.690071
C167	C	-0.041143	-0.596000	-0.356738
C168	C	0.292191	-0.262666	-0.023405
C169	C	-0.346352	-0.957446	-1.020178
C170	C	-0.013018	-0.624112	-0.686845
C171	C	0.320315	-0.290779	-0.353512
C172	C	-0.349409	-0.954382	-1.093685
C173	C	-0.016076	-0.621049	-0.760352
C174	C	0.317258	-0.287716	-0.427019
C175	C	-0.255635	-1.048227	-1.093736
C176	C	0.077699	-0.714894	-0.760403
C177	C	0.411032	-0.381561	-0.427069
C178	C	-0.252583	-1.051294	-1.020233
C179	C	0.080751	-0.717961	-0.686900
C180	C	0.414084	-0.384627	-0.353566
C181	C	-0.297938	-1.005900	-0.983458
C182	C	0.035396	-0.672567	-0.650124
C183	C	0.368729	-0.339234	-0.316791
N184	N	-0.335303	-0.968517	-0.875486
N185	N	-0.001970	-0.635184	-0.542153
N186	N	0.331363	-0.301851	-0.208820
N187	N	-0.294808	-1.009036	-0.908327
N188	N	0.038525	-0.675703	-0.574994
N189	N	0.371859	-0.342370	-0.241660
C190	C	-0.307512	-0.996364	-0.208691
C191	C	0.025822	-0.663031	0.124642
C192	C	0.359155	-0.329698	0.457976
C193	C	-0.304053	-0.999769	-0.130461
C194	C	0.029280	-0.666435	0.202872
C195	C	0.362613	-0.333102	0.536205
H196	H	-0.221281	-0.390743	-0.485783
H197	H	0.112053	-0.057410	-0.152450
H198	H	0.445386	0.275923	0.180883
Cl199	Cl	-1.070178	-0.893490	-0.479445
Cl200	Cl	-0.736845	-0.560157	-0.146112
Cl201	Cl	-0.403512	-0.226824	0.187221
Cl202	Cl	-0.742252	-0.865320	-0.505248
Cl203	Cl	-0.408919	-0.531987	-0.171914
Cl204	Cl	-0.075585	-0.198653	0.161419
H205	H	-0.252248	-0.587474	-0.454673
H206	H	0.081085	-0.254141	-0.121340
H207	H	0.414418	0.079192	0.211994
Cl208	Cl	-0.403010	-0.241001	-0.303476
Cl209	Cl	-0.069677	0.092332	0.029857
Cl210	Cl	0.263657	0.425665	0.363190
Cl211	Cl	-0.207926	-0.241123	-0.499202
Cl212	Cl	0.125407	0.092210	-0.165869
Cl213	Cl	0.458740	0.425544	0.167464
H214	H	-0.246830	-1.057070	-0.793569
H215	H	0.086503	-0.723737	-0.460236
H216	H	0.419836	-0.390404	-0.126902
Cl217	Cl	-0.410275	-0.893460	-1.139853
Cl218	Cl	-0.076942	-0.560127	-0.806520
Cl219	Cl	0.256392	-0.226793	-0.473187
Cl220	Cl	-0.191716	-1.112211	-0.974069
Cl221	Cl	0.141618	-0.778878	-0.640736
Cl222	Cl	0.474951	-0.445544	-0.307402
Cl223	Cl	-0.198618	-1.105287	-1.139971
Cl224	Cl	0.134715	-0.771954	-0.806638
Cl225	Cl	0.468049	-0.438620	-0.473305
Cl226	Cl	-0.575808	-0.872207	-0.498813
Cl227	Cl	-0.242474	-0.538874	-0.165479
Cl228	Cl	0.090859	-0.205540	0.167854
H229	H	-0.411403	-0.892368	-0.660129
H230	H	-0.078069	-0.559034	-0.326795
H231	H	0.255264	-0.225701	0.006538
H232	H	-0.241284	-1.062640	-0.660230
H233	H	0.092050	-0.729307	-0.326896
H234	H	0.425383	-0.395974	0.006437
H235	H	-0.378066	-0.390643	-0.328439
H236	H	-0.044733	-0.057310	0.004894
H237	H	0.288600	0.276023	0.338227
H238	H	-0.383293	-0.920493	-0.990245
H239	H	-0.049960	-0.587159	-0.656912
H240	H	0.283374	-0.253826	-0.323579
Cl241	Cl	-0.428802	-0.571086	-0.277503
Cl242	Cl	-0.095469	-0.237752	0.055830
Cl243	Cl	0.237865	0.095581	0.389164
Cl244	Cl	-0.438398	-0.865348	-0.809742
Cl245	Cl	-0.105065	-0.532015	-0.476409
Cl246	Cl	0.228269	-0.198681	-0.143076
Cl247	Cl	-0.559453	-1.084021	-0.303663
Cl248	Cl	-0.226120	-0.750688	0.029671
Cl249	Cl	0.107214	-0.417355	0.363004
Cl250	Cl	-0.422392	-0.736999	-0.283918
Cl251	Cl	-0.089059	-0.403665	0.049415
Cl252	Cl	0.244275	-0.070332	0.382748
H253	H	-0.247095	-0.720821	-0.459831
H254	H	0.086238	-0.387488	-0.126498
H255	H	0.419571	-0.054155	0.206835
Cl256	Cl	-0.887373	-1.112220	-0.277891
Cl257	Cl	-0.554040	-0.778886	0.055443
Cl258	Cl	-0.220707	-0.445553	0.388776
H259	H	-1.039094	-1.085214	-0.302829
H260	H	-0.705761	-0.751881	0.030504
H261	H	-0.372428	-0.418548	0.363838
Cl262	Cl	-0.725888	-1.077140	-0.310109
Cl263	Cl	-0.392555	-0.743807	0.023225
Cl264	Cl	-0.059221	-0.410474	0.356558
H265	H	-0.918463	-0.920497	-0.454512
H266	H	-0.585130	-0.587164	-0.121178
H267	H	-0.251796	-0.253831	0.212155
