data_functionalizedCrystal
_audit_creation_method	'MofGen! by Chris Wilmer'
_symmetry_space_group_name_H-M	'P1'
_symmetry_Int_Tables_number	1
_symmetry_cell_setting	triclinic
loop_
_symmetry_equiv_pos_as_xyz
  x,y,z
_cell_length_a	12.759401
_cell_length_b	12.827892
_cell_length_c	12.827885
_cell_angle_alpha	90.029786
_cell_angle_beta	90.019449
_cell_angle_gamma	90.016917
loop_
_atom_site_label
_atom_site_type_symbol
_atom_site_fract_x
_atom_site_fract_y
_atom_site_fract_z
Zn1	Zn	1.606246	-0.415940	0.590854
Zn2	Zn	1.939579	-0.082607	0.924187
Zn3	Zn	2.272913	0.250727	1.257520
Zn4	Zn	1.606139	-0.590717	0.416114
Zn5	Zn	1.939473	-0.257384	0.749447
Zn6	Zn	2.272806	0.075949	1.082781
Zn7	Zn	1.430549	-0.415996	0.416127
Zn8	Zn	1.763883	-0.082662	0.749460
Zn9	Zn	2.097216	0.250671	1.082793
Zn10	Zn	1.430534	-0.590644	0.590813
Zn11	Zn	1.763868	-0.257311	0.924147
Zn12	Zn	2.097201	0.076022	1.257480
O13	O	1.518367	-0.503324	0.503477
O14	O	1.851701	-0.169991	0.836810
O15	O	2.185034	0.163342	1.170144
O16	O	1.753253	-0.439132	0.567686
O17	O	2.086586	-0.105798	0.901019
O18	O	2.419919	0.227535	1.234352
O19	O	1.582809	-0.567594	0.269880
O20	O	1.916142	-0.234261	0.603213
O21	O	2.249475	0.099073	0.936546
O22	O	1.453906	-0.269752	0.439327
O23	O	1.787240	0.063581	0.772660
O24	O	2.120573	0.396915	1.105994
O25	O	1.753175	-0.567540	0.439305
O26	O	2.086508	-0.234207	0.772638
O27	O	2.419841	0.099127	1.105972
O28	O	1.582990	-0.269711	0.567698
O29	O	1.916323	0.063622	0.901031
O30	O	2.249657	0.396955	1.234365
O31	O	1.453803	-0.439227	0.269889
O32	O	1.787137	-0.105893	0.603222
O33	O	2.120470	0.227440	0.936556
O34	O	1.283526	-0.439156	0.439288
O35	O	1.616860	-0.105822	0.772621
O36	O	1.950193	0.227511	1.105954
O37	O	1.453881	-0.567416	0.737055
O38	O	1.787215	-0.234082	1.070388
O39	O	2.120548	0.099251	1.403722
O40	O	1.283515	-0.567469	0.567629
O41	O	1.616849	-0.234136	0.900963
O42	O	1.950182	0.099197	1.234296
O43	O	1.582976	-0.439061	0.737084
O44	O	1.916309	-0.105728	1.070418
O45	O	2.249642	0.227606	1.403751
O46	O	1.582794	-0.736944	0.439266
O47	O	1.916128	-0.403610	0.772599
O48	O	2.249461	-0.070277	1.105933
O49	O	1.453778	-0.736890	0.567617
O50	O	1.787111	-0.403557	0.900950
O51	O	2.120445	-0.070223	1.234284
C52	C	1.245400	-0.503311	0.503456
C53	C	1.578733	-0.169978	0.836790
C54	C	1.912067	0.163355	1.170123
C55	C	1.128623	-0.503331	0.503472
C56	C	1.461957	-0.169998	0.836805
C57	C	1.795290	0.163335	1.170139
C58	C	1.073783	-0.570246	0.570194
C59	C	1.407116	-0.236912	0.903528
C60	C	1.740450	0.096421	1.236861
C61	C	0.964059	-0.570250	0.570215
C62	C	1.297392	-0.236916	0.903548
C63	C	1.630726	0.096417	1.236882
C64	C	0.964025	-0.436422	0.436782
C65	C	1.297358	-0.103088	0.770116
C66	C	1.630692	0.230245	1.103449
C67	C	1.073747	-0.436413	0.436768
C68	C	1.407080	-0.103080	0.770101
C69	C	1.740414	0.230254	1.103434
C70	C	1.518302	-0.774834	0.503458
C71	C	1.851635	-0.441501	0.836792
C72	C	2.184968	-0.108168	1.170125
C73	C	1.518370	-0.890987	0.503486
C74	C	1.851703	-0.557654	0.836819
C75	C	2.185036	-0.224321	1.170152
C76	C	1.582287	-0.942764	0.440044
C77	C	1.915620	-0.609431	0.773377
C78	C	2.248953	-0.276097	1.106711
C79	C	1.582358	-1.062814	0.440070
C80	C	1.915692	-0.729481	0.773404
C81	C	2.249025	-0.396148	1.106737
C82	C	1.792400	-0.503338	0.503498
C83	C	2.125734	-0.170004	0.836832
C84	C	2.459067	0.163329	1.170165
C85	C	1.909177	-0.503344	0.503507
C86	C	2.242510	-0.170010	0.836841
C87	C	2.575844	0.163323	1.170174
C88	C	1.518439	-0.503224	0.776047
C89	C	1.851772	-0.169891	1.109381
C90	C	2.185105	0.163443	1.442714
C91	C	1.518469	-0.503181	0.892200
C92	C	1.851803	-0.169848	1.225534
C93	C	2.185136	0.163486	1.558867
C94	C	1.518462	-0.230754	0.503518
C95	C	1.851795	0.102579	0.836852
C96	C	2.185128	0.435913	1.170185
C97	C	1.518502	-0.114601	0.503536
C98	C	1.851835	0.218732	0.836869
C99	C	2.185169	0.552066	1.170203
C100	C	1.518356	-0.503349	0.231967
C101	C	1.851690	-0.170015	0.565300
C102	C	2.185023	0.163318	0.898634
C103	C	1.518530	-0.503097	0.115814
C104	C	1.851863	-0.169764	0.449148
C105	C	2.185196	0.163570	0.782481
C106	C	1.582356	-0.439655	0.944000
C107	C	1.915689	-0.106321	1.277333
C108	C	2.249023	0.227012	1.610666
C109	C	1.582389	-0.439609	1.064050
C110	C	1.915722	-0.106276	1.397384
C111	C	2.249056	0.227058	1.730717
H112	H	0.919413	-0.624737	0.624549
H113	H	1.252746	-0.291404	0.957882
H114	H	1.586080	0.041930	1.291215
H115	H	1.463791	-0.557528	0.936730
H116	H	1.797124	-0.224194	1.270063
H117	H	2.130458	0.109139	1.603397
H118	H	1.463835	-0.557491	1.071275
H119	H	1.797168	-0.224158	1.404608
H120	H	2.130501	0.109176	1.737942
F121	F	0.905612	-0.365208	0.365793
F122	F	1.238946	-0.031875	0.699127
F123	F	1.572279	0.301458	1.032460
F124	F	1.132115	-0.365184	0.365754
F125	F	1.465449	-0.031851	0.699088
F126	F	1.798782	0.301483	1.032421
F127	F	1.132183	-0.641463	0.641190
F128	F	1.465516	-0.308130	0.974523
F129	F	1.798850	0.025204	1.307857
F130	F	1.446966	-1.056412	0.574529
F131	F	1.780299	-0.723079	0.907863
F132	F	2.113632	-0.389745	1.241196
F133	F	1.653751	-0.884541	0.369028
F134	F	1.987085	-0.551208	0.702362
F135	F	2.320418	-0.217874	1.035695
F136	F	1.653881	-1.121010	0.369069
F137	F	1.987215	-0.787677	0.702403
F138	F	2.320548	-0.454343	1.035736
F139	F	1.446916	-0.949210	0.574512
F140	F	1.780250	-0.615877	0.907846
F141	F	2.113583	-0.282544	1.241179
H142	H	1.637024	-0.385298	0.899470
H143	H	1.970357	-0.051964	1.232804
H144	H	2.303691	0.281369	1.566137
F145	F	1.653889	-0.368524	1.122272
F146	F	1.987222	-0.035190	1.455605
F147	F	2.320556	0.298143	1.788938
