data_functionalizedCrystal
_audit_creation_method	'MofGen! by Chris Wilmer'
_symmetry_space_group_name_H-M	'P1'
_symmetry_Int_Tables_number	1
_symmetry_cell_setting	triclinic
loop_
_symmetry_equiv_pos_as_xyz
  x,y,z
_cell_length_a	14.908780
_cell_length_b	14.908520
_cell_length_c	14.908308
_cell_angle_alpha	96.360765
_cell_angle_beta	89.787311
_cell_angle_gamma	96.789949
loop_
_atom_site_label
_atom_site_type_symbol
_atom_site_fract_x
_atom_site_fract_y
_atom_site_fract_z
Zn1	Zn	-1.325975	0.317687	0.605068
Zn2	Zn	-1.325873	0.460338	0.462433
Zn3	Zn	-1.184349	0.316700	0.445982
Zn4	Zn	-1.165840	0.477723	0.604991
O5	O	-1.250509	0.393112	0.529618
O6	O	-1.452207	0.329747	0.593064
O7	O	-1.314802	0.433595	0.334011
O8	O	-1.210925	0.189742	0.460232
O9	O	-1.452132	0.434552	0.488270
O10	O	-1.314977	0.190467	0.577112
O11	O	-1.210825	0.328065	0.321925
O12	O	-1.055648	0.344922	0.460158
O13	O	-1.179380	0.464183	0.731241
O14	O	-1.042050	0.463226	0.576982
O15	O	-1.297030	0.346605	0.731297
O16	O	-1.296855	0.589733	0.488196
O17	O	-1.179280	0.602506	0.592933
C18	C	-1.016115	0.405854	0.516777
C19	C	-0.915838	0.411328	0.511306
C20	C	-0.727462	0.312652	0.610332
C21	C	-0.633242	0.317792	0.605195
C22	C	-0.633178	0.426745	0.495889
C23	C	-0.727397	0.421604	0.501027
C24	C	-0.774536	0.364557	0.558251
C25	C	-0.868757	0.359422	0.563393
C26	C	-0.868691	0.468369	0.454083
C27	C	-0.774472	0.473509	0.448946
C28	C	-1.236072	0.629072	0.542363
C29	C	-1.229976	0.730014	0.547849
C30	C	-1.236152	0.407443	0.764917
C31	C	-1.230033	0.413551	0.865187
C32	C	-0.485819	0.380313	0.542503
C33	C	-0.586097	0.374838	0.547976
C34	C	-1.265027	0.156231	0.516846
C35	C	-1.271213	0.055286	0.511403
C36	C	-1.341065	0.906332	0.449196
C37	C	-1.335341	1.001176	0.454348
C38	C	-1.212808	1.014546	0.563311
C39	C	-1.218532	0.919703	0.558158
C40	C	-1.282662	0.865599	0.501098
C41	C	-1.288381	0.770753	0.495941
C42	C	-1.165853	0.784126	0.604908
C43	C	-1.160129	0.878969	0.610060
C44	C	-1.264867	0.378768	0.295235
C45	C	-1.271176	0.372395	0.194961
C46	C	-1.341044	0.302572	1.053664
C47	C	-1.335299	0.308307	1.147877
C48	C	-1.212793	0.430751	1.147826
C49	C	-1.218538	0.425016	1.053613
C50	C	-1.282667	0.360925	1.006536
C51	C	-1.288417	0.355195	0.912322
C52	C	-1.165907	0.477634	0.912273
C53	C	-1.160161	0.483369	1.006485
H54	H	-1.340597	0.726702	0.449477
H55	H	-1.118295	0.750950	0.647168
O56	O	-1.403314	0.240402	1.007791
C57	C	-1.466428	0.177275	0.862669
C58	C	-1.395878	0.247737	0.914506
H59	H	-1.460427	0.183169	0.787237
H60	H	-1.537089	0.190397	0.885970
H61	H	-1.453955	0.106044	0.876427
H62	H	-1.408267	0.318996	0.900772
H63	H	-1.325241	0.234536	0.891197
H64	H	-1.382900	1.034337	0.412086
H65	H	-0.736079	0.519953	0.402352
O66	O	-0.587323	0.482256	0.440434
C67	C	-0.474143	0.609851	0.428912
C68	C	-0.526025	0.547067	0.491821
H69	H	-0.424559	0.662254	0.470431
H70	H	-0.523921	0.646141	0.392581
H71	H	-0.435496	0.567588	0.377133
H72	H	-0.564675	0.589263	0.543651
H73	H	-0.476203	0.510773	0.528085
H74	H	-1.118374	0.525152	0.873891
O75	O	-1.150423	0.493026	1.193423
C76	C	-1.029554	0.613906	1.183447
C77	C	-1.100131	0.543407	1.131695
H78	H	-0.988887	0.654670	1.133564
H79	H	-0.982184	0.577502	1.222692
H80	H	-1.065392	0.661781	1.232413
H81	H	-1.064370	0.495512	1.082684
H82	H	-1.147497	0.579870	1.092510
O83	O	-1.150544	1.067244	0.618660
C84	C	-1.087470	1.219287	0.674927
C85	C	-1.158012	1.159715	0.612193
H86	H	-1.093496	1.294061	0.669734
H87	H	-1.016804	1.203776	0.654029
H88	H	-1.099928	1.204117	0.747519
H89	H	-1.145638	1.174851	0.539583
H90	H	-1.228653	1.175236	0.633168
O91	O	-1.403308	0.853864	0.393643
C92	C	-1.458292	0.813078	0.241048
C93	C	-1.387763	0.872566	0.303863
H94	H	-1.445737	0.828164	0.168446
H95	H	-1.528954	0.828673	0.261864
H96	H	-1.452360	0.738302	0.246330
H97	H	-1.393612	0.947362	0.298613
H98	H	-1.317130	0.856894	0.283029
O99	O	-1.097861	0.931662	0.665408
C100	C	-1.034770	1.083700	0.721676
C101	C	-1.105320	1.024135	0.658945
H102	H	-1.040790	1.158476	0.716486
H103	H	-0.964108	1.068182	0.700773
H104	H	-1.047226	1.068529	0.794268
H105	H	-1.092949	1.039273	0.586335
H106	H	-1.175958	1.039663	0.679925
H107	H	-0.907028	0.510641	0.411682
H108	H	-1.382833	0.260788	1.186244
O109	O	-1.350588	0.292892	0.866481
C110	C	-1.376706	0.163100	0.754207
C111	C	-1.306205	0.233622	0.806037
H112	H	-1.340848	0.115150	0.705341
H113	H	-1.424014	0.199483	0.714866
H114	H	-1.417454	0.122420	0.804101
H115	H	-1.265394	0.274324	0.756206
H116	H	-1.258958	0.197185	0.845393
H117	H	-1.107948	0.535548	1.044829
H118	H	-0.765842	0.266205	0.656931
O119	O	-0.914414	0.303933	0.618996
C120	C	-0.904524	0.196450	0.726908
C121	C	-0.852711	0.259240	0.663960
H122	H	-0.854658	0.160313	0.763294
H123	H	-0.954031	0.143920	0.685442
H124	H	-0.943244	0.238689	0.778640
H125	H	-0.813938	0.217076	0.612217
H126	H	-0.803257	0.311773	0.705486
H127	H	-0.594918	0.275523	0.647602
