data_functionalizedCrystal
_audit_creation_method	'MofGen! by Chris Wilmer'
_symmetry_space_group_name_H-M	'P1'
_symmetry_Int_Tables_number	1
_symmetry_cell_setting	triclinic
loop_
_symmetry_equiv_pos_as_xyz
  x,y,z
_cell_length_a	14.971482
_cell_length_b	9.798715
_cell_length_c	14.971486
_cell_angle_alpha	89.997194
_cell_angle_beta	83.613368
_cell_angle_gamma	89.996318
loop_
_atom_site_label
_atom_site_type_symbol
_atom_site_fract_x
_atom_site_fract_y
_atom_site_fract_z
O1	O	1.186947	-0.113474	0.116544
O2	O	0.926546	-0.113481	0.130506
O3	O	1.063726	-0.113467	-0.006675
O4	O	1.049767	-0.113487	0.253725
O5	O	1.063714	0.113515	-0.006674
O6	O	0.926534	0.113501	0.130508
O7	O	1.186935	0.113508	0.116545
Zn8	Zn	1.056733	0.149543	0.123527
Zn9	Zn	1.056748	-0.149516	0.123525
O10	O	1.049755	0.113495	0.253727
C11	C	0.893215	0.000010	0.129883
C12	C	0.793918	0.000007	0.128014
C13	C	0.747267	0.123737	0.127134
C14	C	0.653969	0.123738	0.125363
C15	C	0.607322	0.000009	0.124479
C16	C	0.653980	-0.123730	0.125356
C17	C	0.747278	-0.123730	0.127120
C18	C	0.459518	-0.123721	0.121680
C19	C	0.366214	-0.123721	0.119918
C20	C	0.366209	0.123748	0.119924
C21	C	0.459507	0.123747	0.121688
C22	C	0.506158	0.000008	0.122567
N23	N	1.056729	0.353643	0.123527
C24	C	1.114328	0.421425	0.065677
C25	C	1.114341	0.578588	0.065675
C26	C	1.220266	0.000015	0.117168
C27	C	1.319563	0.000008	0.119038
C28	C	1.063096	0.000023	-0.039999
C29	C	1.061225	0.000022	-0.139296
N30	N	1.056752	0.646385	0.123524
C31	C	1.141814	0.000025	-0.196522
C32	C	1.140051	0.000011	-0.289822
C33	C	1.057698	0.000004	-0.325893
C34	C	0.977102	-0.000003	-0.268659
C35	C	0.978866	0.000001	-0.175362
C36	C	0.973431	-0.000008	-0.463122
C37	C	0.971667	-0.000010	-0.556426
C38	C	1.134616	0.000002	-0.577582
C39	C	1.136380	0.000006	-0.484284
C40	C	1.055784	0.000002	-0.427057
C41	C	1.050385	0.000001	0.287051
C42	C	1.052256	-0.000006	0.386348
H43	H	0.615991	0.224491	0.124632
H44	H	0.910049	-0.000017	-0.298036
H45	H	1.200240	0.000002	-0.624181
H46	H	0.904607	0.000007	-0.585792
H47	H	0.785239	0.224492	0.127862
H48	H	0.907801	-0.000015	-0.416529
H49	H	1.203439	0.000022	-0.454919
Cl50	Cl	0.877550	-0.000008	-0.103419
H51	H	1.007422	0.411962	0.173050
H52	H	1.205675	0.000017	-0.336413
Cl53	Cl	0.805926	-0.279283	0.128222
Cl54	Cl	1.190250	0.331394	-0.010991
H55	H	1.163658	0.636878	0.016150
Cl56	Cl	1.245350	0.000048	-0.151186
Cl57	Cl	0.307563	0.279306	0.118819
Cl58	Cl	0.518146	0.279295	0.122810
H59	H	1.007440	0.588103	0.173058
H60	H	0.328237	-0.224473	0.119198
H61	H	0.497499	-0.224483	0.122396
Cl62	Cl	0.595343	-0.279277	0.124211
