data_functionalizedCrystal
_audit_creation_method	'MofGen! by Chris Wilmer'
_symmetry_space_group_name_H-M	'P1'
_symmetry_Int_Tables_number	1
_symmetry_cell_setting	triclinic
loop_
_symmetry_equiv_pos_as_xyz
  x,y,z
_cell_length_a	21.295418
_cell_length_b	18.215405
_cell_length_c	18.215399
_cell_angle_alpha	90.030551
_cell_angle_beta	89.961117
_cell_angle_gamma	89.959302
loop_
_atom_site_label
_atom_site_type_symbol
_atom_site_fract_x
_atom_site_fract_y
_atom_site_fract_z
Zn1	Zn	0.962350	0.292681	-0.416477
Zn2	Zn	0.962272	0.415752	-0.293405
Zn3	Zn	0.857082	0.292738	-0.293383
Zn4	Zn	0.857053	0.415744	-0.416389
O5	O	0.909689	0.354229	-0.354913
O6	O	1.050429	0.308986	-0.400197
O7	O	0.948298	0.399462	-0.190418
O8	O	0.871091	0.189746	-0.309740
O9	O	1.050372	0.399406	-0.309776
O10	O	0.948431	0.189704	-0.400176
O11	O	0.871015	0.309084	-0.190402
O12	O	0.768989	0.309076	-0.309654
O13	O	0.871042	0.399393	-0.519385
O14	O	0.768968	0.399448	-0.400026
O15	O	0.948403	0.308979	-0.519449
O16	O	0.948269	0.518736	-0.309691
O17	O	0.870966	0.518730	-0.400047
C18	C	0.909623	0.545435	-0.354878
C19	C	0.909652	0.627234	-0.354887
C20	C	0.746138	0.354268	-0.354829
C21	C	0.676170	0.354302	-0.354810
C22	C	0.909728	0.354178	-0.546866
C23	C	0.909744	0.354157	-0.628665
C24	C	0.643308	0.401421	-0.401796
C25	C	0.577566	0.401403	-0.401829
C26	C	0.544687	0.354274	-0.354863
C27	C	0.577556	0.307145	-0.307873
C28	C	0.643298	0.307160	-0.307847
N29	N	0.441415	0.348525	-0.290496
N30	N	0.378964	0.348516	-0.290523
C31	C	0.346612	0.354227	-0.354941
N32	N	0.379072	0.359961	-0.419332
N33	N	0.441529	0.359974	-0.419304
C34	C	0.473402	0.354252	-0.354887
C35	C	0.242466	0.401329	-0.401967
C36	C	0.176722	0.401305	-0.402001
C37	C	0.176714	0.307051	-0.308039
C38	C	0.242456	0.307071	-0.308011
C39	C	0.275328	0.354213	-0.354974
C40	C	1.073880	0.354191	-0.354999
C41	C	1.143848	0.354174	-0.355035
C42	C	0.909773	0.162276	-0.354965
C43	C	0.909809	0.080477	-0.354987
C44	C	0.949999	0.815407	-0.307926
C45	C	0.950027	0.892265	-0.307944
C46	C	0.869461	0.892299	-0.401954
C47	C	0.869436	0.815442	-0.401939
C48	C	0.909704	0.776998	-0.354921
C49	C	0.909757	0.930714	-0.354954
C50	C	0.909787	1.014047	-0.354973
C51	C	0.909675	0.693659	-0.354902
C52	C	0.950041	0.307034	-0.816894
C53	C	0.950048	0.307013	-0.893753
C54	C	0.869492	0.401165	-0.893675
C55	C	0.869482	0.401183	-0.816817
C56	C	0.909760	0.354118	-0.778429
C57	C	0.909777	0.354079	-0.932145
C58	C	0.909785	0.354057	-1.015479
C59	C	0.909751	0.354140	-0.695090
C60	C	0.909687	0.354226	-0.163707
C61	C	0.909793	0.354041	-0.081909
H62	H	0.550805	0.439773	-0.440094
H63	H	0.836623	0.784167	-0.440212
O64	O	0.989271	0.929472	-0.262328
C65	C	1.096395	0.952834	-0.226823
C66	C	1.052008	0.910655	-0.278517
H67	H	1.147127	0.937648	-0.239904
H68	H	1.085423	0.937756	-0.167451
H69	H	1.089491	1.014373	-0.234878
H70	H	1.058887	0.849106	-0.270528
H71	H	1.062990	0.925793	-0.337870
O72	O	0.830362	0.929759	-0.447551
C73	C	0.794716	1.048177	-0.489265
C74	C	0.839019	1.005848	-0.437579
H75	H	0.801709	1.109701	-0.481232
H76	H	0.743946	1.033192	-0.476259
H77	H	0.805726	1.032966	-0.548613
H78	H	0.828066	1.021036	-0.378214
H79	H	0.889776	1.020836	-0.450648
H80	H	0.982788	0.784107	-0.269642
O81	O	0.675125	0.261366	-0.262129
C82	C	0.668179	0.167848	-0.168967
C83	C	0.632056	0.219681	-0.220695
H84	H	0.633374	0.134121	-0.135465
H85	H	0.698878	0.201560	-0.130362
H86	H	0.699037	0.129452	-0.202823
H87	H	0.601164	0.258088	-0.186898
H88	H	0.601397	0.185923	-0.259302
O89	O	0.989072	0.261274	-0.779524
C90	C	0.997560	0.161895	-0.692826
C91	C	0.953289	0.213689	-0.735085
H92	H	0.968647	0.123399	-0.656899
H93	H	1.030451	0.195635	-0.656802
H94	H	1.026363	0.128272	-0.733540
H95	H	0.924446	0.247323	-0.694425
H96	H	0.920440	0.179907	-0.771120
O97	O	0.144896	0.447150	-0.447669
C98	C	0.151844	0.540619	-0.540879
C99	C	0.187966	0.488748	-0.489187
H100	H	0.186651	0.574254	-0.574471
H101	H	0.121023	0.579094	-0.507065
H102	H	0.121110	0.506867	-0.579408
H103	H	0.218735	0.522441	-0.450648
H104	H	0.218749	0.450272	-0.523048
O105	O	0.989238	0.261253	-0.931004
C106	C	1.069113	0.167840	-0.922966
C107	C	1.024772	0.219640	-0.880689
H108	H	1.097844	0.134171	-0.882304
H109	H	1.102060	0.201575	-0.958940
H110	H	1.040223	0.129388	-0.958961
H111	H	1.053611	0.258103	-0.844654
H112	H	0.991823	0.185860	-0.844761
O113	O	0.545594	0.261472	-0.262167
C114	C	0.471270	0.251432	-0.162877
C115	C	0.507436	0.303245	-0.214583
H116	H	0.440400	0.285184	-0.124403
H117	H	0.506026	0.217771	-0.129235
H118	H	0.440575	0.212973	-0.196758
H119	H	0.538131	0.341748	-0.180759
H120	H	0.472646	0.336854	-0.248228
H121	H	0.836701	0.439485	-0.924940
O122	O	0.274410	0.261228	-0.262467
C123	C	0.348734	0.161905	-0.252712
C124	C	0.312574	0.213769	-0.304375
H125	H	0.379608	0.123532	-0.286574
H126	H	0.313973	0.128162	-0.219160
H127	H	0.379424	0.195668	-0.214144
H128	H	0.281883	0.180062	-0.342988
H129	H	0.347368	0.247514	-0.337876
H130	H	0.269231	0.439711	-0.440211
O131	O	0.830332	0.446994	-0.779561
C132	C	0.750406	0.540349	-0.787587
C133	C	0.794721	0.488524	-0.829871
H134	H	0.721594	0.573928	-0.828244
H135	H	0.779257	0.578877	-0.751629
H136	H	0.717528	0.506564	-0.751575
H137	H	0.827607	0.522249	-0.865923
H138	H	0.765830	0.449993	-0.865782
H139	H	0.149945	0.268674	-0.269801
O140	O	0.675142	0.447233	-0.447488
C141	C	0.668209	0.540751	-0.540652
C142	C	0.632078	0.488897	-0.488955
H143	H	0.633407	0.574461	-0.574180
H144	H	0.699028	0.507057	-0.579234
H145	H	0.698946	0.579162	-0.506770
H146	H	0.601306	0.450475	-0.522777
H147	H	0.601298	0.522637	-0.450371
