data_functionalizedCrystal
_audit_creation_method	'MofGen! by Chris Wilmer'
_symmetry_space_group_name_H-M	'P1'
_symmetry_Int_Tables_number	1
_symmetry_cell_setting	triclinic
loop_
_symmetry_equiv_pos_as_xyz
  x,y,z
_cell_length_a	17.699083
_cell_length_b	17.699077
_cell_length_c	16.176319
_cell_angle_alpha	90.005422
_cell_angle_beta	90.004339
_cell_angle_gamma	83.281795
loop_
_atom_site_label
_atom_site_type_symbol
_atom_site_fract_x
_atom_site_fract_y
_atom_site_fract_z
O1	O	0.095688	1.004080	0.068737
O2	O	0.108145	0.783701	0.068741
O3	O	-0.008273	0.900117	0.068732
O4	O	0.212106	0.887665	0.068747
O5	O	-0.008273	0.900104	-0.068761
O6	O	0.108145	0.783688	-0.068752
O7	O	0.095688	1.004067	-0.068756
Cu8	Cu	0.101916	0.893876	-0.081308
Cu9	Cu	0.101917	0.893892	0.081294
O10	O	0.212106	0.887651	-0.068746
C11	C	0.107700	0.755498	-0.000005
C12	C	0.106363	0.671479	-0.000003
C13	C	0.105733	0.632004	-0.074952
C14	C	0.104464	0.553062	-0.074953
C15	C	0.103832	0.513595	-0.000004
C16	C	0.104460	0.553076	0.074950
C17	C	0.105722	0.632017	0.074950
C18	C	0.099366	0.234712	0.074951
C19	C	0.098106	0.155765	0.074945
C20	C	0.098108	0.155757	-0.074952
C21	C	0.099371	0.234699	-0.074951
C22	C	0.099995	0.274173	0.000002
C23	C	0.101369	0.359772	0.000002
C24	C	0.102464	0.427997	-0.000004
C25	C	-0.036470	0.899664	-0.000015
C26	C	-0.120488	0.898326	-0.000015
C27	C	-0.169110	0.966659	-0.000018
C28	C	-0.248054	0.965397	-0.000010
C29	C	-0.278373	0.895800	-0.000006
C30	C	-0.229744	0.827461	-0.000001
C31	C	-0.150803	0.828724	-0.000003
C32	C	-0.548107	0.822366	0.000005
C33	C	-0.627055	0.821108	0.000004
C34	C	-0.645358	0.959039	-0.000002
C35	C	-0.566417	0.960302	-0.000003
C36	C	-0.517795	0.891963	0.000006
C37	C	-0.432196	0.893333	-0.000000
C38	C	-0.363971	0.894430	-0.000006
C39	C	0.240303	0.888104	0.000002
C40	C	0.324321	0.889443	0.000008
C41	C	0.096133	1.032271	-0.000008
C42	C	0.097470	1.116289	-0.000004
N43	N	0.101916	0.893870	-0.195673
C44	C	0.147763	0.939685	-0.238932
C45	C	0.147760	0.939693	-0.325479
C46	C	0.101913	0.893882	-0.368766
C47	C	0.056060	0.848065	-0.325502
C48	C	0.056060	0.848062	-0.238956
C49	C	0.056061	0.848079	-0.674530
C50	C	0.056067	0.848084	-0.761081
C51	C	0.147762	0.939711	-0.761052
C52	C	0.147761	0.939707	-0.674507
C53	C	0.101906	0.893894	-0.631250
C54	C	0.101908	0.893887	-0.537406
C55	C	0.101914	0.893884	-0.462608
N56	N	0.101911	0.893904	0.195659
H57	H	0.099890	0.266828	-0.135982
F58	F	0.097432	0.113763	0.154720
H59	H	-0.254436	0.770794	0.000007
H60	H	0.018723	0.810775	-0.639321
F61	F	0.103763	0.511073	0.154716
H62	H	-0.111214	0.773080	-0.000001
F63	F	-0.299798	1.038127	-0.000014
H64	H	0.103939	0.520927	-0.135983
H65	H	0.185098	0.977016	-0.796282
H66	H	-0.651737	0.764431	0.000006
F67	F	0.196559	0.988455	-0.371514
H68	H	0.106254	0.664132	-0.135984
H69	H	0.106237	0.664157	0.135981
F70	F	0.196563	0.988443	-0.192870
H71	H	0.018727	0.810768	-0.360753
F72	F	-0.496370	0.749634	0.000017
H73	H	0.099872	0.266843	0.135983
H74	H	0.185098	0.977009	-0.639267
H75	H	-0.541735	1.016974	-0.000011
F76	F	0.007267	0.799324	-0.807149
F77	F	0.007256	0.799305	-0.192918
H78	H	-0.144431	1.023333	-0.000026
H79	H	0.097597	0.123608	-0.135983
H80	H	-0.684956	1.014683	-0.000005
