data_functionalizedCrystal
_audit_creation_method	'MofGen! by Chris Wilmer'
_symmetry_space_group_name_H-M	'P1'
_symmetry_Int_Tables_number	1
_symmetry_cell_setting	triclinic
loop_
_symmetry_equiv_pos_as_xyz
  x,y,z
_cell_length_a	19.805406
_cell_length_b	18.215407
_cell_length_c	18.215399
_cell_angle_alpha	89.986109
_cell_angle_beta	90.020756
_cell_angle_gamma	90.001908
loop_
_atom_site_label
_atom_site_type_symbol
_atom_site_fract_x
_atom_site_fract_y
_atom_site_fract_z
Zn1	Zn	0.269500	1.125174	-0.416107
Zn2	Zn	0.769500	1.625174	0.083893
Zn3	Zn	0.382696	1.125141	-0.293062
Zn4	Zn	0.882696	1.625141	0.206938
Zn5	Zn	0.269521	1.002113	-0.293061
Zn6	Zn	0.769521	1.502113	0.206939
Zn7	Zn	0.382647	1.002125	-0.416093
Zn8	Zn	0.882647	1.502125	0.083907
O9	O	0.326091	1.063638	-0.354581
O10	O	0.826091	1.563638	0.145419
O11	O	0.284527	1.228154	-0.399791
O12	O	0.784527	1.728154	0.100209
O13	O	0.367712	1.108803	-0.190077
O14	O	0.867712	1.608803	0.309923
O15	O	0.174802	1.018446	-0.309389
O16	O	0.674802	1.518446	0.190611
O17	O	0.367691	1.228130	-0.309390
O18	O	0.867691	1.728130	0.190610
O19	O	0.174786	1.108859	-0.399791
O20	O	0.674786	1.608859	0.100209
O21	O	0.284563	1.018414	-0.190077
O22	O	0.784563	1.518414	0.309923
O23	O	0.284516	0.899130	-0.309375
O24	O	0.784516	1.399130	0.190625
O25	O	0.367609	1.018466	-0.519079
O26	O	0.867609	1.518466	-0.019079
O27	O	0.367629	0.899139	-0.399766
O28	O	0.867629	1.399139	0.100234
O29	O	0.284480	1.108870	-0.519090
O30	O	0.784480	1.608870	-0.019090
O31	O	0.477406	1.108814	-0.309376
O32	O	0.977406	1.608814	0.190624
O33	O	0.477370	1.018434	-0.399767
O34	O	0.977370	1.518434	0.100233
C35	C	0.326070	0.872432	-0.354569
C36	C	0.826070	1.372432	0.145431
C37	C	0.326078	0.790633	-0.354582
C38	C	0.826078	1.290633	0.145418
C39	C	0.149548	1.063655	-0.354592
C40	C	0.649548	1.563655	0.145408
C41	C	0.074316	1.063662	-0.354596
C42	C	0.574316	1.563662	0.145404
C43	C	0.369439	0.525599	-0.401583
C44	C	0.869439	1.025599	0.098417
C45	C	0.369433	0.602458	-0.401579
C46	C	0.869433	1.102458	0.098421
C47	C	0.282758	0.602419	-0.307592
C48	C	0.782758	1.102419	0.192408
C49	C	0.282768	0.525561	-0.307592
C50	C	0.782768	1.025561	0.192408
C51	C	0.326107	0.487154	-0.354592
C52	C	0.826107	0.987154	0.145408
C53	C	0.326092	0.640870	-0.354588
C54	C	0.826092	1.140870	0.145412
C55	C	0.326085	0.724203	-0.354584
C56	C	0.826085	1.224203	0.145416
C57	C	0.326115	0.403815	-0.354595
C58	C	0.826115	0.903815	0.145405
C59	C	0.038955	1.016609	-0.401657
C60	C	0.538955	1.516609	0.098343
C61	C	-0.031733	1.016618	-0.401662
C62	C	0.468267	1.516618	0.098338
C63	C	-0.067059	1.063677	-0.354603
C64	C	0.432941	1.563677	0.145397
C65	C	-0.031694	1.110735	-0.307540
C66	C	0.468306	1.610735	0.192460
C67	C	0.038993	1.110730	-0.307539
C68	C	0.538993	1.610730	0.192461
C69	C	-0.316767	1.110760	-0.307545
C70	C	0.183233	1.610760	0.192455
C71	C	-0.387459	1.110761	-0.307548
C72	C	0.112541	1.610761	0.192452
C73	C	-0.387493	1.016648	-0.401668
C74	C	0.112507	1.516648	0.098332
C75	C	-0.316806	1.016642	-0.401667
C76	C	0.183194	1.516642	0.098333
C77	C	-0.281447	1.063703	-0.354607
C78	C	0.218553	1.563703	0.145393
C79	C	-0.204798	1.063694	-0.354603
C80	C	0.295202	1.563694	0.145397
C81	C	-0.143707	1.063683	-0.354603
C82	C	0.356293	1.563683	0.145397
C83	C	0.501947	1.063641	-0.354586
C84	C	1.001947	1.563641	0.145414
C85	C	0.577179	1.063710	-0.354613
C86	C	1.077179	1.563710	0.145387
C87	C	0.326037	1.063673	-0.546534
C88	C	0.826037	1.563673	-0.046534
C89	C	0.326014	1.063688	-0.628333
C90	C	0.826014	1.563688	-0.128333
C91	C	0.326112	1.255591	-0.354593
C92	C	0.826112	1.755591	0.145407
C93	C	0.326121	1.337390	-0.354598
C94	C	0.826121	1.837390	0.145402
C95	C	0.282689	1.016662	-0.816527
C96	C	0.782689	1.516662	-0.316527
C97	C	0.282675	1.016675	-0.893386
C98	C	0.782675	1.516675	-0.393386
C99	C	0.369258	1.110801	-0.893376
C100	C	0.869258	1.610801	-0.393376
C101	C	0.369274	1.110784	-0.816519
C102	C	0.869274	1.610784	-0.316519
C103	C	0.325986	1.063716	-0.778096
C104	C	0.825986	1.563716	-0.278096
C105	C	0.325956	1.063746	-0.931812
C106	C	0.825956	1.563746	-0.431812
C107	C	0.325941	1.063760	-1.015146
C108	C	0.825941	1.563760	-0.515146
C109	C	0.326001	1.063700	-0.694757
C110	C	0.826001	1.563700	-0.194757
C111	C	0.326096	1.063646	-0.163375
C112	C	0.826096	1.563646	0.336625
C113	C	0.325928	1.063774	-0.081576
C114	C	0.825928	1.563774	0.418424
H115	H	0.404729	0.494330	-0.439853
H116	H	0.904729	0.994330	0.060147
N117	N	0.236027	0.484091	-0.256907
N118	N	0.736027	0.984091	0.243093
H119	H	0.242613	0.429574	-0.264037
H120	H	0.742613	0.929574	0.235963
H121	H	0.246506	0.497515	-0.204330
H122	H	0.746506	0.997515	0.295670
H123	H	0.247419	0.978359	-0.924673
H124	H	0.747419	1.478359	-0.424673
N125	N	0.416173	0.643925	-0.452259
N126	N	0.916173	1.143925	0.047741
H127	H	0.443628	0.607929	-0.482030
H128	H	0.943628	1.107929	0.017970
H129	H	0.388656	0.675821	-0.486361
H130	H	0.888656	1.175821	0.013639
N131	N	0.236004	0.965889	-0.775093
N132	N	0.736004	1.465889	-0.275093
H133	H	0.263515	0.931777	-0.743199
H134	H	0.763515	1.431777	-0.243199
H135	H	0.204652	0.995840	-0.743253
H136	H	0.704652	1.495840	-0.243253
N137	N	0.415948	1.161563	-0.934817
N138	N	0.915948	1.661563	-0.434817
H139	H	0.409369	1.154435	-0.989338
H140	H	0.909369	1.654435	-0.489338
H141	H	0.405424	1.214121	-0.921386
H142	H	0.905424	1.714121	-0.421386
N143	N	0.236013	0.643844	-0.256903
N144	N	0.736013	1.143844	0.243097
H145	H	0.242580	0.698367	-0.264034
H146	H	0.742580	1.198367	0.235966
H147	H	0.187688	0.630402	-0.268439
H148	H	0.687688	1.130402	0.231561
H149	H	0.067713	0.978288	-0.439979
H150	H	0.567713	1.478288	0.060021
H151	H	-0.060523	0.978304	-0.439983
H152	H	0.439477	1.478304	0.060017
H153	H	0.404535	1.149102	-0.785227
H154	H	0.904535	1.649102	-0.285227
H155	H	-0.416221	1.149085	-0.269225
H156	H	0.083779	1.649085	0.230775
H157	H	-0.416291	0.978330	-0.439989
H158	H	0.083709	1.478330	0.060011
N159	N	-0.278704	0.965880	-0.452418
N160	N	0.221296	1.465880	0.047582
H161	H	-0.311832	0.936072	-0.482232
H162	H	0.188168	1.436072	0.017768
H163	H	-0.249382	0.995839	-0.486476
H164	H	0.250618	1.495839	0.013524
N165	N	-0.069789	1.161492	-0.256777
N166	N	0.430211	1.661492	0.243223
H167	H	-0.057487	1.214075	-0.268211
H168	H	0.442513	1.714075	0.231789
H169	H	-0.119923	1.154294	-0.263937
H170	H	0.380077	1.654294	0.236063
N171	N	-0.278634	1.161513	-0.256787
N172	N	0.221366	1.661513	0.243213
H173	H	-0.311742	1.191321	-0.226974
H174	H	0.188258	1.691321	0.273026
H175	H	-0.249298	1.131548	-0.222727
H176	H	0.250702	1.631548	0.277273
N177	N	0.077136	1.161483	-0.256784
N178	N	0.577136	1.661483	0.243216
H179	H	0.044032	1.191295	-0.226971
H180	H	0.544032	1.691295	0.273029
H181	H	0.106475	1.131521	-0.222724
H182	H	0.606475	1.631521	0.277276
