data_functionalizedCrystal
_audit_creation_method	'MofGen! by Chris Wilmer'
_symmetry_space_group_name_H-M	'P1'
_symmetry_Int_Tables_number	1
_symmetry_cell_setting	triclinic
loop_
_symmetry_equiv_pos_as_xyz
  x,y,z
_cell_length_a	14.971491
_cell_length_b	15.944551
_cell_length_c	14.048226
_cell_angle_alpha	89.992615
_cell_angle_beta	89.991693
_cell_angle_gamma	83.557487
loop_
_atom_site_label
_atom_site_type_symbol
_atom_site_fract_x
_atom_site_fract_y
_atom_site_fract_z
O1	O	1.186826	0.109484	-0.079203
O2	O	0.926412	0.122588	-0.079197
O3	O	1.063731	-0.006232	-0.079192
O4	O	1.049508	0.238304	-0.079208
O5	O	1.063714	-0.006240	0.079130
O6	O	0.926396	0.122580	0.079125
O7	O	1.186810	0.109476	0.079118
Zn8	Zn	1.056600	0.116027	0.104258
Zn9	Zn	1.056622	0.116037	-0.104337
O10	O	1.049491	0.238296	0.079113
C11	C	0.893080	0.121997	-0.000035
C12	C	0.793785	0.120239	-0.000032
C13	C	0.366097	0.112655	-0.086355
C14	C	0.459395	0.114305	-0.086351
C15	C	0.506031	0.115131	-0.000047
C16	C	0.459365	0.114299	0.086259
C17	C	0.366069	0.112643	0.086255
C18	C	0.653823	0.117752	0.086263
C19	C	0.747125	0.119409	0.086268
C20	C	0.747149	0.119413	-0.086343
C21	C	0.653853	0.117758	-0.086348
C22	C	0.607193	0.116927	-0.000041
C23	C	1.063132	-0.037530	-0.000031
C24	C	1.061362	-0.130778	-0.000030
C25	C	0.972014	-0.345721	-0.000041
C26	C	1.013496	-0.406702	0.078020
C27	C	1.058159	-0.301507	-0.000037
C28	C	1.013533	-0.406678	-0.078073
C29	C	1.055060	-0.466423	-0.000049
C30	C	1.099665	-0.361260	0.078088
C31	C	1.099689	-0.361229	-0.078075
C32	C	1.141234	-0.422192	0.000005
C33	C	1.059942	-0.206503	-0.000030
C34	C	1.053283	-0.561426	-0.000049
C35	C	1.220142	0.110067	-0.000046
C36	C	1.319437	0.111825	-0.000055
C37	C	1.050090	0.269594	-0.000050
C38	C	1.051860	0.362842	-0.000057
N39	N	1.056592	0.116020	0.246619
N40	N	1.056637	0.116038	-0.246698
C41	C	1.117415	0.059002	0.296439
C42	C	1.117421	0.059001	0.396097
C43	C	1.056607	0.116023	0.445932
C44	C	0.995777	0.173044	0.396105
C45	C	0.995768	0.173040	0.296449
C46	C	0.995803	0.173050	0.603819
C47	C	0.995814	0.173056	0.703482
C48	C	1.117457	0.059012	0.703467
C49	C	1.117447	0.059007	0.603811
C50	C	1.056618	0.116029	0.553991
H51	H	0.328078	0.111976	0.156529
Cl52	Cl	0.517993	0.115336	0.194757
H53	H	0.946267	0.219481	0.563259
Cl54	Cl	0.861619	-0.294404	0.000076
H55	H	0.946238	0.219468	0.255887
Cl56	Cl	1.155864	-0.330352	0.180090
Cl57	Cl	1.193876	-0.012684	0.233799
Cl58	Cl	0.307477	0.111622	-0.194858
H59	H	0.977053	-0.426849	0.144016
Cl60	Cl	1.193886	-0.012680	0.458730
H61	H	1.166986	0.012583	0.744036
Cl62	Cl	1.251725	-0.473284	0.000067
H63	H	0.977093	-0.426787	-0.144071
H64	H	0.946292	0.219488	0.744053
H65	H	1.166971	0.012580	0.563235
H66	H	1.136101	-0.341060	-0.144074
H67	H	0.497383	0.114975	-0.156625
Cl68	Cl	0.595225	0.116726	-0.194846
Cl69	Cl	0.805805	0.120468	-0.194843
Cl70	Cl	0.919320	0.244726	0.458753
H71	H	0.785093	0.120086	0.156544
H72	H	0.615834	0.117086	0.156543
