data_functionalizedCrystal
_audit_creation_method	'MofGen! by Chris Wilmer'
_symmetry_space_group_name_H-M	'P1'
_symmetry_Int_Tables_number	1
_symmetry_cell_setting	triclinic
loop_
_symmetry_equiv_pos_as_xyz
  x,y,z
_cell_length_a	17.699083
_cell_length_b	10.268362
_cell_length_c	17.699083
_cell_angle_alpha	89.997763
_cell_angle_beta	96.716985
_cell_angle_gamma	89.998576
loop_
_atom_site_label
_atom_site_type_symbol
_atom_site_fract_x
_atom_site_fract_y
_atom_site_fract_z
O1	O	1.004076	0.108120	-0.095707
O2	O	0.783698	0.108163	-0.108160
O3	O	0.900113	0.108129	0.008256
O4	O	0.887661	0.108154	-0.212123
O5	O	0.900102	-0.108472	0.008252
O6	O	0.783687	-0.108437	-0.108164
O7	O	1.004065	-0.108480	-0.095711
Cu8	Cu	0.893875	-0.128236	-0.101938
Cu9	Cu	0.893888	0.127919	-0.101933
O10	O	0.887650	-0.108446	-0.212127
C11	C	0.755495	-0.000132	-0.107716
C12	C	0.671477	-0.000116	-0.106377
C13	C	0.622856	-0.000108	-0.174710
C14	C	0.543913	-0.000125	-0.173448
C15	C	0.513592	-0.000140	-0.103852
C16	C	0.562219	-0.000152	-0.035513
C17	C	0.641161	-0.000144	-0.036776
C18	C	0.243856	-0.000184	-0.030418
C19	C	0.164908	-0.000188	-0.029160
C20	C	0.146608	-0.000166	-0.167090
C21	C	0.225550	-0.000158	-0.168353
C22	C	0.274170	-0.000176	-0.100015
C23	C	0.359769	-0.000160	-0.101384
C24	C	0.427995	-0.000147	-0.102481
N25	N	0.893871	-0.308402	-0.101941
C26	C	0.893877	-0.426244	-0.101941
C27	C	0.893886	-0.574082	-0.101934
C28	C	1.032268	-0.000183	-0.096156
C29	C	1.116286	-0.000190	-0.097494
C30	C	0.899662	-0.000171	0.036451
C31	C	0.898323	-0.000172	0.120469
N32	N	0.893898	0.308085	-0.101924
C33	C	0.888102	-0.000143	-0.240322
C34	C	0.889440	-0.000134	-0.324340
C35	C	0.966656	-0.000187	0.169090
C36	C	0.965394	-0.000175	0.248033
C37	C	0.895798	-0.000157	0.278354
C38	C	0.827459	-0.000138	0.229727
C39	C	0.828722	-0.000141	0.150785
C40	C	0.822364	-0.000127	0.548090
C41	C	0.821106	-0.000128	0.627038
C42	C	0.959036	-0.000161	0.645338
C43	C	0.960299	-0.000163	0.566396
C44	C	0.891961	-0.000138	0.517776
C45	C	0.893330	-0.000148	0.432177
C46	C	0.894427	-0.000156	0.363951
H47	H	0.140225	-0.000202	0.027517
N48	N	0.693609	-0.000144	0.036924
H49	H	0.726770	-0.080438	0.039471
H50	H	0.662372	-0.000103	0.081164
N51	N	0.746036	-0.000087	0.659740
H52	H	0.755609	-0.000094	0.717127
H53	H	0.716129	-0.080371	0.641947
N54	N	1.041722	-0.000218	0.136389
H55	H	1.084819	-0.000224	0.179172
H56	H	1.045256	0.080075	0.104031
H57	H	0.537526	-0.000183	0.021154
H58	H	1.016971	-0.000184	0.541714
N59	N	0.748660	-0.000104	0.495655
H60	H	0.704382	-0.000099	0.526845
H61	H	0.746174	-0.080400	0.462504
H62	H	1.021038	-0.000190	0.287618
H63	H	0.250232	-0.000140	-0.225025
N64	N	0.755019	-0.000160	0.098342
H65	H	0.766378	-0.000168	0.043732
H66	H	0.724677	0.080136	0.108137
N67	N	0.296291	-0.000213	0.043286
H68	H	0.265101	-0.000221	0.087564
H69	H	0.329444	0.080081	0.045775
N70	N	1.032747	-0.000189	0.697778
H71	H	1.021391	-0.000181	0.752389
H72	H	1.063093	0.080095	0.687973
N73	N	0.491506	-0.000142	-0.247173
H74	H	0.458329	0.080136	-0.249754
H75	H	0.458409	-0.080505	-0.249695
N76	N	0.752393	-0.000111	0.262425
H77	H	0.761960	-0.000116	0.319812
H78	H	0.722493	-0.080400	0.244630
H79	H	0.647537	-0.000095	-0.231384
H80	H	0.107012	-0.000158	-0.222734
