data_functionalizedCrystal
_audit_creation_method	'MofGen! by Chris Wilmer'
_symmetry_space_group_name_H-M	'P1'
_symmetry_Int_Tables_number	1
_symmetry_cell_setting	triclinic
loop_
_symmetry_equiv_pos_as_xyz
  x,y,z
_cell_length_a	10.489741
_cell_length_b	10.489746
_cell_length_c	10.268362
_cell_angle_alpha	89.998351
_cell_angle_beta	90.001726
_cell_angle_gamma	95.459763
loop_
_atom_site_label
_atom_site_type_symbol
_atom_site_fract_x
_atom_site_fract_y
_atom_site_fract_z
O1	O	-0.180001	1.694050	-0.108201
O2	O	0.319999	2.194050	0.391799
O3	O	-0.196886	1.322855	-0.108222
O4	O	0.303114	1.822855	0.391778
O5	O	-0.002846	1.516899	-0.108214
O6	O	0.497154	2.016899	0.391786
O7	O	-0.374041	1.500006	-0.108209
O8	O	0.125959	2.000006	0.391791
O9	O	-0.002838	1.516882	0.108386
O10	O	0.497162	2.016882	0.608386
O11	O	-0.196878	1.322838	0.108378
O12	O	0.303122	1.822838	0.608378
O13	O	-0.179992	1.694033	0.108399
O14	O	0.320008	2.194033	0.608399
Cu15	Cu	-0.188435	1.508434	0.128166
Cu16	Cu	0.311565	2.008434	0.628166
Cu17	Cu	-0.188444	1.508454	-0.127989
Cu18	Cu	0.311556	2.008454	0.372011
O19	O	-0.374033	1.499989	0.108391
O20	O	0.125967	1.999989	0.608391
C21	C	-0.195606	1.275315	0.000075
C22	C	0.304394	1.775315	0.500075
C23	C	-0.191786	1.133686	0.000067
C24	C	0.308214	1.633686	0.500067
C25	C	-0.066062	0.980828	0.000084
C26	C	0.433938	1.480828	0.500084
C27	C	-0.128915	1.058213	0.106876
C28	C	0.371085	1.558213	0.606876
C29	C	-0.128952	1.058186	-0.106675
C30	C	0.371048	1.558186	0.393325
C31	C	-0.247896	0.958722	0.106980
C32	C	0.252104	1.458722	0.606980
C33	C	-0.247916	0.958689	-0.106668
C34	C	0.252084	1.458689	0.393332
C35	C	-0.310856	1.036025	0.000151
C36	C	0.189144	1.536025	0.500151
C37	C	-0.421569	1.501273	0.000092
C38	C	0.078431	2.001273	0.500092
C39	C	-0.563198	1.505091	0.000094
C40	C	-0.063198	2.005091	0.500094
C41	C	-0.631341	1.628555	0.000091
C42	C	-0.131341	2.128555	0.500091
C43	C	-0.723456	1.570223	0.106882
C44	C	-0.223456	2.070223	0.606882
C45	C	-0.723442	1.570211	-0.106669
C46	C	-0.223442	2.070211	0.393331
C47	C	-0.653449	1.446708	0.106973
C48	C	-0.153449	1.946708	0.606973
C49	C	-0.653425	1.446713	-0.106674
C50	C	-0.153425	1.946713	0.393326
C51	C	-0.745513	1.388291	0.000144
C52	C	-0.245513	1.888291	0.500144
C53	C	0.044690	1.515614	0.000082
C54	C	0.544690	2.015614	0.500082
C55	C	0.186320	1.511797	0.000072
C56	C	0.686320	2.011797	0.500072
C57	C	-0.181273	1.741573	0.000099
C58	C	0.318727	2.241573	0.500099
C59	C	-0.185093	1.883202	0.000099
C60	C	0.314907	2.383202	0.500099
N61	N	-0.188427	1.508429	0.308332
N62	N	0.311573	2.008429	0.808332
N63	N	-0.188442	1.508469	-0.308155
N64	N	0.311558	2.008469	0.191845
C65	C	-0.188442	1.508448	0.574003
C66	C	0.311558	2.008448	1.074003
C67	C	-0.188437	1.508433	0.426165
C68	C	0.311563	2.008433	0.926165
H69	H	0.037439	0.956107	0.000190
H70	H	0.537439	1.456107	0.500190
Cl71	Cl	-0.325432	0.891531	-0.246069
Cl72	Cl	0.174568	1.391531	0.253931
H73	H	-0.298107	0.915435	0.197369
H74	H	0.201893	1.415435	0.697369
H75	H	-0.581694	1.730068	0.000203
H76	H	-0.081694	2.230068	0.500203
Cl77	Cl	-0.821810	1.231421	0.000211
Cl78	Cl	-0.321810	1.731421	0.500211
H79	H	-0.622385	1.394523	-0.196969
H80	H	-0.122385	1.894523	0.303031
Cl81	Cl	-0.051335	1.125325	0.246274
Cl82	Cl	0.448665	1.625325	0.746274
Cl83	Cl	-0.470774	1.073815	0.000234
Cl84	Cl	0.029226	1.573815	0.500234
H85	H	-0.078685	1.101636	-0.196962
H86	H	0.421315	1.601636	0.303038
Cl87	Cl	-0.771289	1.650909	-0.246055
Cl88	Cl	-0.271289	2.150909	0.253945
Cl89	Cl	-0.771344	1.650868	0.246276
Cl90	Cl	-0.271344	2.150868	0.746276
H91	H	-0.622611	1.394502	0.197357
H92	H	-0.122611	1.894502	0.697357
