data_functionalizedCrystal
_audit_creation_method	'MofGen! by Chris Wilmer'
_symmetry_space_group_name_H-M	'P1'
_symmetry_Int_Tables_number	1
_symmetry_cell_setting	triclinic
loop_
_symmetry_equiv_pos_as_xyz
  x,y,z
_cell_length_a	18.266242
_cell_length_b	9.065218
_cell_length_c	9.065218
_cell_angle_alpha	94.984115
_cell_angle_beta	89.999790
_cell_angle_gamma	89.993535
loop_
_atom_site_label
_atom_site_type_symbol
_atom_site_fract_x
_atom_site_fract_y
_atom_site_fract_z
O1	O	0.060880	-1.960406	0.216350
O2	O	0.060880	-1.531121	0.234096
O3	O	0.060878	-1.754637	0.010581
O4	O	0.060881	-1.736891	0.439865
O5	O	-0.060884	-1.754608	0.010587
O6	O	-0.060882	-1.531092	0.234103
O7	O	-0.060882	-1.960377	0.216357
Zn8	Zn	-0.080214	-1.745730	0.225231
Zn9	Zn	0.080212	-1.745768	0.225222
O10	O	-0.060881	-1.736862	0.439872
C11	C	-0.000001	-1.476120	0.232394
C12	C	-0.000000	-1.312277	0.227294
C13	C	-0.000001	-1.752917	-0.044403
C14	C	0.000002	-1.747817	-0.208245
N15	N	-0.189701	-1.745715	0.225236
C16	C	-0.771977	-1.836479	0.315933
C17	C	-0.695332	-1.836464	0.315948
C18	C	-0.657014	-1.745782	0.225207
C19	C	-0.695347	-1.655080	0.134473
C20	C	-0.771990	-1.655087	0.134472
N21	N	-0.536677	-1.740086	0.095888
N22	N	-0.463869	-1.740088	0.095893
C23	C	-0.426091	-1.745753	0.225207
N24	N	-0.463873	-1.751446	0.354518
N25	N	-0.536688	-1.751451	0.354511
C26	C	-0.573907	-1.745764	0.225199
C27	C	-0.304661	-1.836425	0.315959
C28	C	-0.228015	-1.836399	0.315976
C29	C	-0.228030	-1.655024	0.134488
C30	C	-0.304675	-1.655042	0.134484
C31	C	-0.342986	-1.745750	0.225217
N32	N	0.189699	-1.745795	0.225205
C33	C	0.000000	-2.015378	0.218059
C34	C	0.000004	-2.179221	0.223158
C35	C	0.000001	-1.738582	0.494855
C36	C	0.000002	-1.743681	0.658698
H37	H	-0.803165	-1.910338	0.389818
H38	H	-0.803193	-1.581239	0.060588
H39	H	-0.664143	-1.581243	0.060594
H40	H	-0.664123	-1.910307	0.389836
C41	C	-0.346129	-1.934942	0.414634
C42	C	-0.296158	-2.014320	0.494135
C43	C	-0.334329	-2.105075	0.585063
H44	H	-0.376022	-2.002171	0.355267
H45	H	-0.376020	-1.875419	0.481777
H46	H	-0.266280	-2.073840	0.427001
H47	H	-0.266263	-1.947129	0.553531
H48	H	-0.364220	-2.045551	0.652207
H49	H	-0.364220	-2.172294	0.525685
H50	H	-0.300429	-2.158933	0.639026
H51	H	-0.196813	-1.910242	0.389867
C52	C	-0.186349	-1.556445	0.036226
C53	C	-0.142352	-1.457738	0.124322
C54	C	-0.103937	-1.366900	0.033862
H55	H	-0.220075	-1.502301	-0.017832
H56	H	-0.156398	-1.615935	-0.030827
H57	H	-0.172301	-1.398254	0.191349
H58	H	-0.108613	-1.511841	0.178379
H59	H	-0.073985	-1.426390	-0.033191
H60	H	-0.137668	-1.312766	-0.020191
H61	H	-0.074075	-1.299925	0.093621
C62	C	-0.346159	-1.556550	0.035803
C63	C	-0.296203	-1.477154	-0.043695
C64	C	-0.334391	-1.386417	-0.134628
H65	H	-0.376067	-1.489332	0.095166
H66	H	-0.376036	-1.616087	-0.031341
H67	H	-0.266338	-1.417621	0.023441
H68	H	-0.266293	-1.544334	-0.103087
H69	H	-0.364269	-1.445954	-0.201773
H70	H	-0.364298	-1.319208	-0.075254
H71	H	-0.300502	-1.332546	-0.188589
