data_functionalizedCrystal
_audit_creation_method	'MofGen! by Chris Wilmer'
_symmetry_space_group_name_H-M	'P1'
_symmetry_Int_Tables_number	1
_symmetry_cell_setting	triclinic
loop_
_symmetry_equiv_pos_as_xyz
  x,y,z
_cell_length_a	6.394989
_cell_length_b	16.109301
_cell_length_c	15.186229
_cell_angle_alpha	90.005167
_cell_angle_beta	90.002838
_cell_angle_gamma	84.979596
loop_
_atom_site_label
_atom_site_type_symbol
_atom_site_fract_x
_atom_site_fract_y
_atom_site_fract_z
O1	O	-2.771399	-0.136204	-0.073223
O2	O	-2.163266	-0.143066	-0.073227
O3	O	-2.484038	-0.018781	-0.073216
O4	O	-2.450626	-0.260489	-0.073234
O5	O	-2.484017	-0.018779	0.073241
O6	O	-2.163244	-0.143064	0.073230
O7	O	-2.771378	-0.136202	0.073234
Zn8	Zn	-2.467308	-0.139632	0.096485
Zn9	Zn	-2.467336	-0.139635	-0.096478
O10	O	-2.450605	-0.260487	0.073223
C11	C	-2.482674	0.012210	0.000013
C12	C	-2.478617	0.104548	0.000014
C13	C	-2.451969	-0.291477	-0.000008
C14	C	-2.456027	-0.383815	-0.000015
N15	N	-2.467304	-0.139630	0.228178
C16	C	-2.085435	-0.141708	0.000006
C17	C	-1.849203	-0.137562	0.000010
N18	N	-2.467356	-0.139631	-0.228171
C19	C	-2.659522	0.324905	0.000001
C20	C	-2.655693	0.411666	-0.000006
C21	C	-2.275107	0.395821	-0.000005
C22	C	-2.278938	0.309061	-0.000004
C23	C	-2.471152	0.273606	0.000004
C24	C	-2.463492	0.447126	-0.000005
C25	C	-2.459339	0.541196	-0.000012
C26	C	-2.475306	0.179530	0.000010
C27	C	-2.609390	-0.084616	0.453906
C28	C	-2.609397	-0.084614	0.546095
C29	C	-2.325255	-0.194647	0.546095
C30	C	-2.325240	-0.194644	0.453907
C31	C	-2.467319	-0.139630	0.407815
C32	C	-2.467341	-0.139631	0.592192
C33	C	-2.467347	-0.139629	0.692148
C34	C	-2.467311	-0.139630	0.307852
H35	H	-2.809083	0.453431	-0.000010
N36	N	-2.866831	0.286665	0.000002
H37	H	-2.840682	0.223919	0.000008
H38	H	-2.949245	0.305299	0.054296
H39	H	-2.725077	-0.039819	0.416380
H40	H	-2.725081	-0.039816	0.583620
N41	N	-2.075754	0.253727	0.000012
H42	H	-2.107352	0.193386	0.000012
H43	H	-1.991980	0.265423	-0.054279
N44	N	-2.172050	-0.253992	0.595812
H45	H	-2.082044	-0.288842	0.552622
H46	H	-2.079742	-0.221179	0.634073
N47	N	-2.067800	0.434062	-0.000009
H48	H	-2.093952	0.496808	-0.000007
H49	H	-1.985373	0.415440	0.054285
N50	N	-2.171982	-0.253976	0.404186
H51	H	-2.081985	-0.288831	0.447372
H52	H	-2.251901	-0.291586	0.365923
