data_functionalizedCrystal
_audit_creation_method	'MofGen! by Chris Wilmer'
_symmetry_space_group_name_H-M	'P1'
_symmetry_Int_Tables_number	1
_symmetry_cell_setting	triclinic
loop_
_symmetry_equiv_pos_as_xyz
  x,y,z
_cell_length_a	6.817900
_cell_length_b	10.773890
_cell_length_c	12.000055
_cell_angle_alpha	94.306118
_cell_angle_beta	119.142236
_cell_angle_gamma	96.645716
loop_
_atom_site_label
_atom_site_type_symbol
_atom_site_fract_x
_atom_site_fract_y
_atom_site_fract_z
V1	V	-4.186512	-0.177305	-0.396430
O2	O	-4.207486	0.003648	-0.391026
O3	O	-4.101831	-0.346879	-0.391658
O4	O	-4.223801	-0.176715	-0.570266
O5	O	-4.084672	-0.167694	-0.211181
V6	V	-4.663738	-0.155408	-0.374523
O7	O	-4.461584	-0.225337	-0.444484
O8	O	-4.838864	-0.107376	-0.326468
O9	O	-4.525213	0.014167	-0.379295
O10	O	-4.760161	-0.336361	-0.379927
O11	O	-4.882975	-0.165018	-0.559772
O12	O	-4.403243	-0.155997	-0.200686
C13	C	-3.935233	-0.388151	-0.384872
C14	C	-3.947854	-0.526794	-0.382129
C15	C	-4.090816	-0.171088	-0.612704
C16	C	-4.202347	-0.171728	-0.754803
C17	C	-4.077188	-0.166025	-0.812041
C18	C	-4.192457	-0.166686	-0.958908
C19	C	-4.128278	-0.594714	-0.386896
C20	C	-4.141326	-0.738009	-0.384061
C21	C	-4.355150	0.055432	-0.386077
C22	C	-4.321771	0.194074	-0.388828
C23	C	-4.199566	-0.161628	-0.158242
C24	C	-4.067274	-0.160982	-0.016142
H25	H	-3.884700	-0.160659	-0.752316
F26	F	-4.511078	-0.743285	-0.396915
H27	H	-3.874777	-0.155615	-0.956423
H28	H	-3.803052	-0.574733	-0.375958
F29	F	-4.453949	-0.178760	-0.832863
F30	F	-3.952038	-0.800656	-0.375993
F31	F	-4.444068	-0.173719	-1.036964
F32	F	-4.317567	-0.532065	-0.394981
