data_functionalizedCrystal
_audit_creation_method	'MofGen! by Chris Wilmer'
_symmetry_space_group_name_H-M	'P1'
_symmetry_Int_Tables_number	1
_symmetry_cell_setting	triclinic
loop_
_symmetry_equiv_pos_as_xyz
  x,y,z
_cell_length_a	20.875641
_cell_length_b	20.875492
_cell_length_c	21.606444
_cell_angle_alpha	58.306417
_cell_angle_beta	90.000582
_cell_angle_gamma	55.998966
loop_
_atom_site_label
_atom_site_type_symbol
_atom_site_fract_x
_atom_site_fract_y
_atom_site_fract_z
Zr1	Zr	0.604072	0.693877	-0.094714
O2	O	0.489656	0.843902	-0.205130
O3	O	0.644445	0.549587	-0.055739
O4	O	0.636797	0.691348	-0.192256
O5	O	0.497310	0.702136	0.033242
O6	O	0.746836	0.682829	-0.187933
O7	O	0.497304	0.702141	-0.068612
O8	O	0.760518	0.429245	0.056271
O9	O	0.483629	0.955720	-0.210962
O10	O	0.737383	0.600454	-0.042085
O11	O	0.655266	0.606808	0.030702
O12	O	0.646261	0.773712	-0.130029
O13	O	0.564144	0.780066	-0.057242
Zr14	Zr	0.779582	0.680281	0.074626
Zr15	Zr	0.779573	0.680290	-0.087820
Zr16	Zr	0.604081	0.693869	0.067732
Zr17	Zr	0.594459	0.872214	-0.104016
Zr18	Zr	0.789195	0.501945	0.083928
O19	O	0.739209	0.824571	0.035650
O20	O	0.739196	0.824583	-0.195327
O21	O	0.489669	0.843890	0.025848
O22	O	0.893998	0.530256	0.185041
O23	O	0.893984	0.530268	-0.045936
O24	O	0.644458	0.549575	0.175239
O25	O	0.886344	0.672022	-0.053331
O26	O	0.746857	0.682810	0.172168
O27	O	0.636817	0.691330	0.167845
O28	O	0.886349	0.672017	0.048524
O29	O	0.623129	0.944920	-0.205482
O30	O	0.760525	0.429238	0.185394
O31	O	0.900025	0.418438	0.190874
O32	O	0.900017	0.418445	0.061751
O33	O	0.483636	0.955713	-0.081839
O34	O	0.623136	0.944913	-0.076359
O35	O	0.737392	0.600446	0.109941
O36	O	0.819509	0.594092	0.037154
O37	O	0.728387	0.767351	-0.050790
O38	O	0.646270	0.773705	0.021997
C39	C	0.703851	0.464007	0.001592
C40	C	0.707932	0.388298	0.005541
C41	C	0.645900	0.419050	-0.054324
C42	C	0.649736	0.347926	-0.050641
C43	C	0.715601	0.246053	0.012911
C44	C	0.777639	0.215301	0.072779
C45	C	0.773806	0.286423	0.069092
C46	C	0.733927	0.026231	0.030552
C47	C	0.737754	-0.044891	0.034236
C48	C	0.609851	0.087739	-0.089185
C49	C	0.606020	0.158857	-0.092864
C50	C	0.668061	0.128100	-0.032998
N51	N	0.719522	0.173352	0.016679
N52	N	0.664142	0.200800	-0.036770
C53	C	0.472302	0.704075	-0.018667
C54	C	0.397797	0.709843	-0.021594
C55	C	0.410357	0.622116	0.022933
C56	C	0.340349	0.627541	0.020181
C57	C	0.257782	0.720695	-0.027103
C58	C	0.245223	0.808429	-0.071631
C59	C	0.315230	0.803002	-0.068874
C60	C	0.043305	0.746623	-0.040266
C61	C	-0.026704	0.752043	-0.043021
C62	C	0.068428	0.571155	0.048792
C63	C	0.138432	0.565736	0.051541
C64	C	0.125867	0.653470	0.007016
N65	N	0.186221	0.726243	-0.029919
N66	N	0.197428	0.647921	0.009837
C67	C	0.911352	0.670084	-0.001421
C68	C	0.985856	0.664316	0.001506
C69	C	0.691815	0.687090	-0.213240
C70	C	0.691811	0.687093	-0.282202
C71	C	0.679803	0.910151	-0.021680
C72	C	0.675722	0.985860	-0.025629
C73	C	0.644246	0.777532	-0.360507
C74	C	0.644253	0.777529	-0.425302
C75	C	0.691821	0.687086	-0.411790
C76	C	0.739392	0.596640	-0.333477
C77	C	0.739389	0.596644	-0.268684
C78	C	0.739406	0.596623	-0.594779
C79	C	0.739403	0.596626	-0.659580
C80	C	0.644270	0.777507	-0.751396
C81	C	0.644267	0.777511	-0.686603
C82	C	0.691841	0.687066	-0.608296
C83	C	0.691834	0.687070	-0.538039
C84	C	0.691824	0.687081	-0.482045
C85	C	0.691838	0.687069	0.193151
C86	C	0.691842	0.687065	0.262114
C87	C	0.923376	0.447012	0.010215
C88	C	1.001961	0.365535	0.017090
C89	C	0.703862	0.463996	0.204787
C90	C	0.707947	0.388284	0.277699
C91	C	0.923387	0.447001	0.213410
C92	C	1.001977	0.365521	0.289249
C93	C	0.460266	0.927157	-0.233499
C94	C	0.381677	1.008638	-0.309337
C95	C	0.460278	0.927147	-0.030303
C96	C	0.381692	1.008624	-0.037179
C97	C	0.679791	0.910162	-0.224875
C98	C	0.675706	0.985874	-0.297787
C99	C	0.995997	0.330593	-0.021049
C100	C	1.069829	0.254047	-0.014605
C101	C	1.149625	0.212440	0.029984
C102	C	1.155587	0.247389	0.068125
C103	C	1.081756	0.323938	0.061675
C104	C	0.752734	0.349408	0.353308
C105	C	0.756569	0.278279	0.421821
C106	C	0.715621	0.246021	0.414725
C107	C	0.670828	0.284905	0.339108
C108	C	0.666989	0.356038	0.270596
C109	C	1.081755	0.323939	0.286869
C110	C	1.155604	0.247389	0.358121
C111	C	1.149674	0.212417	0.431751
C112	C	1.069887	0.254006	0.434129
C113	C	0.996039	0.330560	0.362877
C114	C	0.301898	1.050228	-0.306958
C115	C	0.228048	1.126800	-0.378211
C116	C	0.233978	1.161776	-0.451842
C117	C	0.313765	1.120182	-0.454218
C118	C	0.387613	1.043616	-0.382967
C119	C	0.387656	1.043573	0.000954
C120	C	0.313823	1.120138	-0.005509
C121	C	0.234027	1.161748	-0.050101
C122	C	0.228065	1.126796	-0.088238
C123	C	0.301897	1.050237	-0.081779
C124	C	0.716664	1.018108	-0.290665
C125	C	0.712843	1.089237	-0.359166
C126	C	0.668058	1.128136	-0.434789
C127	C	0.627099	1.095895	-0.441909
C128	C	0.630926	1.024762	-0.373408
H129	H	0.824319	0.261378	0.117841
F130	F	1.063589	0.216775	0.512499
F131	F	0.575793	0.527471	-0.121963
H132	H	0.784444	0.001175	0.079299
F133	F	0.587323	0.990471	-0.381001
F134	F	0.295537	1.013045	-0.122364
F135	F	1.063466	0.216864	-0.055200
F136	F	0.764333	0.976721	-0.210188
F137	F	1.088085	0.361150	0.208513
H138	H	0.590636	1.127577	-0.503490
F139	F	0.756435	1.123542	-0.351572
H140	H	0.718753	0.188100	0.470519
F141	F	0.583711	0.380662	-0.114356
F142	F	0.498229	0.522968	0.073255
H143	H	0.205659	0.489881	0.090030
H144	H	0.793047	0.246628	0.483385
F145	F	0.847741	0.106877	0.140414
F146	F	0.143141	1.171051	-0.375664
H147	H	0.778121	0.523000	-0.204924
F148	F	0.543829	0.120464	-0.152895
H149	H	0.778127	0.523000	-0.322480
H150	H	0.078648	0.499727	0.085043
H151	H	0.552397	0.241805	-0.144625
F152	F	0.663990	1.203844	-0.507687
H153	H	0.605505	0.851181	-0.371519
F154	F	0.295568	1.013016	-0.228602
H155	H	1.209737	0.150108	0.035230
F156	F	0.807861	-0.153320	0.101879
H157	H	0.630521	0.387682	0.209035
F158	F	0.911079	0.374864	-0.068512
F159	F	0.796324	0.383723	0.360878
F160	F	0.627252	0.250563	0.331569
H161	H	0.318583	1.148670	-0.514177
H162	H	1.220567	0.213501	0.104429
F163	F	1.088117	0.361112	0.102277
F164	F	0.790011	0.500364	-0.511447
F165	F	1.240511	0.203138	0.355574
F166	F	1.228277	0.130940	0.507578
F167	F	0.029923	0.839997	-0.087656
F168	F	0.353722	0.534169	0.067580
H169	H	0.931084	0.364406	0.364826
F170	F	0.472518	0.999355	-0.385510
F171	F	-0.114582	0.851194	-0.093356
F172	F	0.155374	1.243265	-0.527669
F173	F	0.593629	0.873773	-0.700990
H174	H	0.452624	1.009699	0.037270
H175	H	0.177990	0.884276	-0.110126
F176	F	0.593639	0.873768	-0.834742
F177	F	0.320186	1.157320	0.035087
H178	H	0.173915	1.224087	-0.055354
H179	H	0.163085	1.160687	-0.124545
H180	H	0.605523	0.851173	-0.489059
F181	F	0.790035	0.500359	-0.645193
F182	F	0.301860	0.896373	-0.116264
