data_functionalizedCrystal
_audit_creation_method	'MofGen! by Chris Wilmer'
_symmetry_space_group_name_H-M	'P1'
_symmetry_Int_Tables_number	1
_symmetry_cell_setting	triclinic
loop_
_symmetry_equiv_pos_as_xyz
  x,y,z
_cell_length_a	19.188930
_cell_length_b	19.188925
_cell_length_c	9.730223
_cell_angle_alpha	90.000965
_cell_angle_beta	90.014074
_cell_angle_gamma	83.143665
loop_
_atom_site_label
_atom_site_type_symbol
_atom_site_fract_x
_atom_site_fract_y
_atom_site_fract_z
O1	O	-0.926139	-0.087165	-0.114731
O2	O	-0.722828	-0.098899	-0.114636
O3	O	-0.830352	0.008624	-0.114678
O4	O	-0.818614	-0.194688	-0.114688
O5	O	-0.830351	0.008621	0.113902
O6	O	-0.722826	-0.098902	0.113944
O7	O	-0.926138	-0.087168	0.113849
Zn8	Zn	-0.824482	-0.093035	0.150189
Zn9	Zn	-0.824484	-0.093032	-0.150975
O10	O	-0.818613	-0.194691	0.113891
C11	C	-0.696816	-0.098520	-0.000334
C12	C	-0.619311	-0.097380	-0.000298
C13	C	-0.829972	0.034634	-0.000389
C14	C	-0.828833	0.112138	-0.000391
C15	C	-0.952149	-0.087546	-0.000456
C16	C	-1.029654	-0.088687	-0.000501
C17	C	-0.574386	-0.160471	-0.000323
C18	C	-0.501563	-0.159399	-0.000338
C19	C	-0.473667	-0.095233	-0.000356
C20	C	-0.518602	-0.032134	-0.000323
C21	C	-0.591424	-0.033207	-0.000294
N22	N	-0.365688	-0.046185	-0.078204
N23	N	-0.296510	-0.045169	-0.078235
C24	C	-0.254259	-0.091995	-0.000440
N25	N	-0.283798	-0.139884	0.077370
N26	N	-0.352983	-0.140902	0.077394
C27	C	-0.394705	-0.094062	-0.000386
C28	C	-0.130369	-0.153928	-0.000479
C29	C	-0.057544	-0.152854	-0.000485
C30	C	-0.074586	-0.025586	-0.000485
C31	C	-0.147409	-0.026662	-0.000464
C32	C	-0.175296	-0.090835	-0.000468
C33	C	-0.818993	-0.220700	-0.000401
C34	C	-0.820132	-0.298205	-0.000408
C35	C	-0.884297	0.673909	-0.000452
C36	C	-0.885374	0.601085	-0.000440
C37	C	-0.822282	0.556151	-0.000411
C38	C	-0.758108	0.584045	-0.000359
C39	C	-0.757033	0.656867	-0.000357
N40	N	-0.776606	0.435471	-0.078193
N41	N	-0.777631	0.366294	-0.078197
C42	C	-0.825516	0.336742	-0.000414
N43	N	-0.872347	0.378982	0.077358
N44	N	-0.871324	0.448166	0.077356
C45	C	-0.823440	0.477187	-0.000412
C46	C	-0.890852	0.229893	-0.000443
C47	C	-0.891926	0.157068	-0.000423
C48	C	-0.764659	0.140029	-0.000355
C49	C	-0.763587	0.212852	-0.000362
C50	C	-0.826685	0.257780	-0.000412
N51	N	-0.824486	-0.093037	0.355725
N52	N	-0.824485	-0.093024	-0.356512
C53	C	-0.872110	-0.045442	0.427632
C54	C	-0.872108	-0.045433	0.571515
C55	C	-0.776856	-0.140622	0.571571
C56	C	-0.776855	-0.140626	0.427690
C57	C	-0.919741	0.002147	0.355667
C58	C	-0.967369	0.049746	0.427574
C59	C	-0.967367	0.049754	0.571457
C60	C	-0.919737	0.002164	0.643433
H61	H	-0.597087	-0.212725	-0.000328
H62	H	-0.944179	0.134365	-0.000450
N63	N	-0.160456	-0.223137	-0.000458
H64	H	-0.190306	-0.226420	-0.085185
H65	H	-0.120905	-0.262904	-0.000412
N66	N	-0.488520	0.037075	-0.000326
H67	H	-0.435570	0.028183	-0.000350
H68	H	-0.504989	0.064680	-0.085053
H69	H	-0.020966	-0.204232	-0.000497
H70	H	-0.051874	0.026659	-0.000584
N71	N	-0.639883	0.034845	-0.000289
H72	H	-0.690247	0.024428	-0.000275
H73	H	-0.630858	0.062820	0.084445
N74	N	-0.725487	-0.191948	0.649194
H75	H	-0.732715	-0.184723	0.751253
H76	H	-0.733395	-0.241462	0.624045
N77	N	-0.696610	0.091569	-0.000312
H78	H	-0.694217	0.060973	-0.085043
H79	H	-0.655835	0.120336	-0.000235
N80	N	-0.919738	0.002147	0.200481
H81	H	-0.882338	-0.035225	0.165847
H82	H	-0.967164	-0.007877	0.165909
H83	H	-0.711337	0.235557	-0.000336
N84	N	-0.453094	-0.227448	-0.000385
H85	H	-0.422477	-0.229846	0.084334
H86	H	-0.481858	-0.268225	-0.000435
H87	H	-0.704781	0.679571	-0.000318
N88	N	-0.195869	0.041386	-0.000437
H89	H	-0.167150	0.082199	-0.000449
H90	H	-0.226476	0.043716	-0.085160
N91	N	-0.725488	-0.191957	0.350121
H92	H	-0.695318	-0.222107	0.417540
H93	H	-0.752119	-0.222760	0.290410
N94	N	-0.952349	0.722368	-0.000485
H95	H	-0.980356	0.713420	-0.085233
H96	H	-0.980298	0.713393	0.084293
H97	H	-0.937626	0.578376	-0.000476
H98	H	-0.706738	0.547455	-0.000331
H99	H	-0.942231	0.266475	-0.000483
H100	H	-1.006144	0.088515	0.630003
N101	N	-1.018725	0.101088	0.349954
H102	H	-1.011498	0.093864	0.247895
H103	H	-1.068231	0.093155	0.375074
N104	N	-0.919726	0.002170	0.798621
H105	H	-0.909717	0.049585	0.833276
H106	H	-0.967136	-0.007900	0.833155
