data_functionalizedCrystal
_audit_creation_method	'MofGen! by Chris Wilmer'
_symmetry_space_group_name_H-M	'P1'
_symmetry_Int_Tables_number	1
_symmetry_cell_setting	triclinic
loop_
_symmetry_equiv_pos_as_xyz
  x,y,z
_cell_length_a	12.759401
_cell_length_b	12.827892
_cell_length_c	12.759393
_cell_angle_alpha	89.969144
_cell_angle_beta	89.981433
_cell_angle_gamma	90.014436
loop_
_atom_site_label
_atom_site_type_symbol
_atom_site_fract_x
_atom_site_fract_y
_atom_site_fract_z
Zn1	Zn	1.606250	-0.415998	-0.593988
Zn2	Zn	1.606143	-0.590779	-0.418311
Zn3	Zn	1.430552	-0.416049	-0.418328
Zn4	Zn	1.430539	-0.590695	-0.593952
O5	O	1.518371	-0.503380	-0.506145
O6	O	1.753257	-0.439197	-0.570693
O7	O	1.582811	-0.567657	-0.271292
O8	O	1.453910	-0.269807	-0.441652
O9	O	1.753178	-0.567607	-0.441623
O10	O	1.582994	-0.269769	-0.570709
O11	O	1.453805	-0.439284	-0.271304
O12	O	1.283530	-0.439203	-0.441616
O13	O	1.453887	-0.567464	-0.740978
O14	O	1.283520	-0.567514	-0.570647
O15	O	1.582981	-0.439115	-0.741005
O16	O	1.582798	-0.737004	-0.441588
O17	O	1.453782	-0.736942	-0.570631
C18	C	1.245404	-0.503356	-0.506130
C19	C	1.128627	-0.503370	-0.506149
C20	C	1.073799	-0.436633	-0.573460
C21	C	0.964075	-0.436653	-0.573466
C22	C	0.964016	-0.570157	-0.438848
C23	C	1.073738	-0.570131	-0.438837
C24	C	1.073832	-0.359559	-0.651183
C25	C	0.964108	-0.359579	-0.651190
C26	C	1.518305	-0.774890	-0.506126
C27	C	1.518373	-0.891043	-0.506153
C28	C	1.582290	-0.942824	-0.442370
C29	C	1.582362	-1.062874	-0.442396
C30	C	1.792404	-0.503406	-0.506160
C31	C	1.909181	-0.503416	-0.506167
C32	C	1.518445	-0.503275	-0.780178
C33	C	1.518476	-0.503230	-0.896955
C34	C	1.518466	-0.230810	-0.506186
C35	C	1.518506	-0.114657	-0.506204
C36	C	1.585705	-0.436392	-0.951833
C37	C	1.585730	-0.436354	-1.061557
C38	C	1.451294	-0.570001	-1.061516
C39	C	1.451265	-0.570033	-0.951794
C40	C	1.663323	-0.359235	-0.951857
C41	C	1.663348	-0.359198	-1.061581
C42	C	1.518358	-0.503410	-0.233177
C43	C	1.518530	-0.503160	-0.116401
H44	H	0.930068	-0.282664	-0.622189
O45	O	1.113265	-0.252312	-0.622489
H46	H	1.161601	-0.221013	-0.687649
H47	H	1.396571	-0.624387	-1.106179
H48	H	1.118375	-0.624465	-0.384017
O49	O	1.654872	-1.121845	-0.370074
H50	H	1.643564	-1.206883	-0.381459
O51	O	0.904808	-0.642161	-0.366256
H52	H	0.925831	-0.624125	-0.283830
H53	H	1.634235	-0.282301	-1.095628
H54	H	1.463777	-1.070135	-0.560811
H55	H	1.107897	-0.388635	-0.728422
O56	O	0.924691	-0.388438	-0.758918
H57	H	0.992411	-0.402562	-0.811651
H58	H	1.463709	-0.935589	-0.560785
H59	H	1.636963	-0.898281	-0.387746
O60	O	1.378701	-0.642067	-0.892599
H61	H	1.331962	-0.688500	-0.949168
O62	O	1.634493	-0.252041	-0.912424
H63	H	1.620388	-0.199537	-0.980137
H64	H	1.740595	-0.388250	-0.917822
O65	O	1.771122	-0.387923	-1.101043
H66	H	1.823862	-0.402027	-1.033344
