data_functionalizedCrystal
_audit_creation_method	'MofGen! by Chris Wilmer'
_symmetry_space_group_name_H-M	'P1'
_symmetry_Int_Tables_number	1
_symmetry_cell_setting	triclinic
loop_
_symmetry_equiv_pos_as_xyz
  x,y,z
_cell_length_a	11.026607
_cell_length_b	10.723024
_cell_length_c	9.198806
_cell_angle_alpha	90.002012
_cell_angle_beta	90.003539
_cell_angle_gamma	96.526943
loop_
_atom_site_label
_atom_site_type_symbol
_atom_site_fract_x
_atom_site_fract_y
_atom_site_fract_z
O1	O	-1.614521	-0.523503	-0.120890
O2	O	-1.260718	-0.463891	-0.120892
O3	O	-1.445780	-0.313882	-0.120886
O4	O	-1.429459	-0.673512	-0.120896
O5	O	-1.445766	-0.313879	0.120900
O6	O	-1.260704	-0.463888	0.120893
O7	O	-1.614506	-0.523499	0.120895
Cu8	Cu	-1.437603	-0.493693	0.142971
Cu9	Cu	-1.437621	-0.493698	-0.142968
O10	O	-1.429444	-0.673508	0.120889
C11	C	-1.444585	-0.267125	0.000005
C12	C	-1.441032	-0.127803	0.000000
C13	C	-1.215408	-0.452892	0.000000
C14	C	-1.080422	-0.420109	-0.000001
C15	C	-1.659816	-0.534498	-0.000000
C16	C	-1.794803	-0.567282	-0.000009
C17	C	-1.007369	-0.510629	-0.000004
C18	C	-0.867853	-0.476748	-0.000005
C19	C	-1.430639	-0.720266	-0.000005
C20	C	-1.434193	-0.859587	-0.000010
N21	N	-1.437600	-0.493691	0.344085
C22	C	-1.544583	-0.075171	-0.000001
C23	C	-1.540912	0.068824	-0.000007
N24	N	-1.437634	-0.493692	-0.344082
C25	C	-1.515302	-0.430355	0.416285
C26	C	-1.515321	-0.430355	0.583697
H27	H	-1.048115	-0.613209	0.000001
Cl28	Cl	-1.618041	-0.346640	0.679551
Cl29	Cl	-0.804962	-0.318360	0.000010
H30	H	-1.371111	-0.547925	0.593839
H31	H	-1.629560	0.114123	-0.000001
Cl32	Cl	-1.617717	-0.346291	0.320378
H33	H	-1.039676	-0.317529	-0.000035
H34	H	-1.349660	-0.066260	-0.000010
Cl35	Cl	-0.857690	-0.725671	0.000007
Cl36	Cl	-1.685660	-0.170180	-0.000009
H37	H	-1.345540	0.095122	0.000001
Cl38	Cl	-1.334902	-0.577406	0.439992
