data_functionalizedCrystal
_audit_creation_method	'MofGen! by Chris Wilmer'
_symmetry_space_group_name_H-M	'P1'
_symmetry_Int_Tables_number	1
_symmetry_cell_setting	triclinic
loop_
_symmetry_equiv_pos_as_xyz
  x,y,z
_cell_length_a	6.817900
_cell_length_b	19.551823
_cell_length_c	16.305550
_cell_angle_alpha	95.888693
_cell_angle_beta	103.455250
_cell_angle_gamma	101.663376
loop_
_atom_site_label
_atom_site_type_symbol
_atom_site_fract_x
_atom_site_fract_y
_atom_site_fract_z
V1	V	-4.017281	-0.097265	-0.263428
O2	O	-4.014216	0.004067	-0.258008
O3	O	-3.959975	-0.192277	-0.262017
O4	O	-3.968800	-0.096036	-0.378140
O5	O	-4.005329	-0.092841	-0.141081
V6	V	-4.502073	-0.085113	-0.248747
O7	O	-4.275755	-0.123922	-0.295633
O8	O	-4.693797	-0.058457	-0.216543
O9	O	-4.336173	0.009899	-0.250158
O10	O	-4.622535	-0.186446	-0.254168
O11	O	-4.631422	-0.089538	-0.371095
O12	O	-4.327347	-0.086343	-0.134035
C13	C	-3.802811	-0.215431	-0.257962
C14	C	-3.837243	-0.293106	-0.257573
C15	C	-4.035182	-0.333161	-0.261608
C16	C	-4.067539	-0.406146	-0.261251
C17	C	-3.901937	-0.439072	-0.256841
C18	C	-3.703973	-0.399008	-0.252810
C19	C	-3.671626	-0.326026	-0.253175
C20	C	-3.788746	-0.545440	-0.203346
C21	C	-3.821097	-0.618420	-0.202975
C22	C	-4.001700	-0.664175	-0.255717
C23	C	-4.149976	-0.636939	-0.308819
C24	C	-4.117629	-0.563956	-0.309185
C25	C	-3.936992	-0.518209	-0.256445
C26	C	-4.234737	-0.783369	-0.259367
C27	C	-4.267089	-0.856357	-0.259015
C28	C	-3.903513	-0.849216	-0.250564
C29	C	-3.871171	-0.776231	-0.250925
C30	C	-4.036788	-0.743312	-0.255322
C31	C	-3.814068	-0.092664	-0.406088
C32	C	-3.855655	-0.092287	-0.499868
C33	C	-4.006876	-0.090827	-0.840607
C34	C	-3.771228	-0.086491	-0.799661
C35	C	-3.727972	-0.087172	-0.702169
C36	C	-3.931852	-0.091551	-0.671563
C37	C	-4.092525	-0.160559	-0.722471
C38	C	-4.134424	-0.160169	-0.820019
C39	C	-4.067542	-0.026706	-0.794503
C40	C	-4.019662	-0.026160	-0.696658
C41	C	-3.889464	-0.091963	-0.576026
C42	C	-4.049273	-0.090420	-0.936145
C43	C	-4.156678	0.033048	-0.254211
C44	C	-4.101484	0.110723	-0.254606
C45	C	-4.145421	-0.089717	-0.106083
C46	C	-4.083073	-0.090090	-0.012302
H47	H	-4.296858	-0.674203	-0.351882
N48	N	-3.593942	-0.496092	-0.146457
H49	H	-3.504933	-0.524418	-0.112757
H50	H	-3.632423	-0.461681	-0.105882
H51	H	-3.980959	0.025581	-0.807657
N52	N	-4.295136	-0.030086	-0.830033
H53	H	-4.380429	-0.075747	-0.820490
H54	H	-4.324073	-0.027987	-0.893237
N55	N	-4.480596	-0.899564	-0.263376
H56	H	-4.580594	-0.867632	-0.266216
H57	H	-4.475289	-0.923100	-0.210842
N58	N	-3.566464	-0.021454	-0.655500
H59	H	-3.522791	0.008220	-0.698221
H60	H	-3.441937	-0.035418	-0.620597
H61	H	-3.768679	-0.876024	-0.246979
H62	H	-3.669684	-0.036640	-0.811821
N63	N	-4.214775	-0.024984	-0.668318
H64	H	-4.249181	-0.067016	-0.638687
H65	H	-4.333106	-0.027188	-0.719765
N66	N	-4.080606	-0.224462	-0.860529
H67	H	-4.107227	-0.224852	-0.924173
H68	H	-4.169166	-0.268619	-0.849046
H69	H	-3.721891	-0.132559	-0.831361
N70	N	-3.634206	-0.148878	-0.680823
H71	H	-3.620865	-0.175747	-0.734783
H72	H	-3.726517	-0.181309	-0.653674
N73	N	-3.458115	-0.282819	-0.248809
H74	H	-3.462752	-0.231589	-0.249706
H75	H	-3.411025	-0.300917	-0.299469
N76	N	-3.657676	-0.733024	-0.246573
H77	H	-3.557674	-0.764955	-0.243726
H78	H	-3.609688	-0.695682	-0.193974
N79	N	-4.213817	-0.297660	-0.266369
H80	H	-4.163298	-0.245347	-0.265990
H81	H	-4.272213	-0.305071	-0.215582
H82	H	-4.245155	-0.166259	-0.703581
N83	N	-4.363941	-0.168180	-0.857137
H84	H	-4.437476	-0.171952	-0.810119
H85	H	-4.420510	-0.212322	-0.901256
H86	H	-4.369592	-0.756565	-0.262946
H87	H	-3.903320	0.024883	-0.662071
N88	N	-3.661177	-0.647805	-0.145722
H89	H	-3.726291	-0.673947	-0.104783
H90	H	-3.541876	-0.607719	-0.112430
N91	N	-3.525350	-0.434514	-0.248045
H92	H	-3.575872	-0.486826	-0.248418
H93	H	-3.413688	-0.413289	-0.193693
N94	N	-4.013180	-0.224876	-0.700464
H95	H	-3.877099	-0.222677	-0.715857
H96	H	-4.117778	-0.268979	-0.733547
N97	N	-4.280890	-0.449399	-0.265450
H98	H	-4.329189	-0.486791	-0.318007
H99	H	-4.380874	-0.417468	-0.268212
N100	N	-4.277525	-0.534579	-0.366460
H101	H	-4.396849	-0.574634	-0.399820
H102	H	-4.212193	-0.508431	-0.407337
