data_functionalizedCrystal
_audit_creation_method	'MofGen! by Chris Wilmer'
_symmetry_space_group_name_H-M	'P1'
_symmetry_Int_Tables_number	1
_symmetry_cell_setting	triclinic
loop_
_symmetry_equiv_pos_as_xyz
  x,y,z
_cell_length_a	21.395362
_cell_length_b	25.639239
_cell_length_c	21.395364
_cell_angle_alpha	90.004705
_cell_angle_beta	90.036401
_cell_angle_gamma	90.054564
loop_
_atom_site_label
_atom_site_type_symbol
_atom_site_fract_x
_atom_site_fract_y
_atom_site_fract_z
Zn1	Zn	0.957778	-0.208065	0.354582
Zn2	Zn	0.957680	-0.295463	0.249803
Zn3	Zn	0.853007	-0.208067	0.249783
Zn4	Zn	0.852948	-0.295496	0.354508
O5	O	0.905353	-0.251773	0.302169
O6	O	1.045443	-0.219644	0.340722
O7	O	0.943778	-0.283857	0.162122
O8	O	0.866971	-0.134902	0.263708
O9	O	1.045371	-0.283855	0.263741
O10	O	0.943946	-0.134900	0.340703
O11	O	0.866876	-0.219648	0.162108
O12	O	0.765321	-0.219680	0.263636
O13	O	0.866870	-0.283911	0.442195
O14	O	0.765278	-0.283913	0.340576
O15	O	0.943888	-0.219676	0.442250
O16	O	0.943721	-0.368632	0.263669
O17	O	0.866775	-0.368657	0.340595
C18	C	0.742565	-0.251800	0.302096
C19	C	0.672924	-0.251825	0.302080
C20	C	0.640205	-0.285315	0.342083
C21	C	0.574769	-0.285303	0.342111
C22	C	0.542056	-0.251805	0.302125
C23	C	0.574783	-0.218308	0.262119
C24	C	0.640217	-0.218318	0.262096
C25	C	0.438339	-0.247581	0.245719
C26	C	0.372906	-0.247574	0.245741
C27	C	0.340235	-0.251771	0.302194
C28	C	0.373005	-0.255984	0.358627
C29	C	0.438439	-0.255994	0.358605
C30	C	0.471103	-0.251790	0.302145
C31	C	0.236563	-0.285249	0.342230
C32	C	0.171127	-0.285233	0.342259
C33	C	0.171142	-0.218240	0.262262
C34	C	0.236577	-0.218254	0.262238
C35	C	0.269284	-0.251761	0.302222
C36	C	0.905248	-0.387615	0.302140
C37	C	0.905260	-0.445729	0.302149
C38	C	0.945524	-0.806067	0.262182
C39	C	0.945548	-0.860672	0.262190
O40	O	0.979672	-0.888887	0.228177
N41	N	0.905463	-0.888012	0.302210
C42	C	0.865356	-0.860745	0.342229
O43	O	0.831264	-0.889014	0.376271
C44	C	0.865335	-0.806142	0.342224
C45	C	0.905418	-0.778804	0.302196
C46	C	0.985604	-0.778730	0.222158
C47	C	0.985578	-0.724129	0.222149
C48	C	0.945473	-0.696866	0.262164
C49	C	0.905393	-0.724204	0.302187
C50	C	0.825232	-0.778876	0.382245
C51	C	0.825215	-0.724269	0.382237
C52	C	0.865298	-0.696931	0.342209
C53	C	0.865262	-0.642340	0.342193
N54	N	0.905347	-0.615000	0.302173
C55	C	0.945452	-0.642263	0.262158
C56	C	0.865403	-0.975416	0.342239
C57	C	0.865420	-1.030018	0.342242
C58	C	0.945613	-1.029941	0.262203
C59	C	0.945592	-0.975337	0.262198
C60	C	0.905488	-0.948075	0.302219
C61	C	0.945396	-0.527598	0.262142
C62	C	0.945365	-0.472992	0.262134
C63	C	0.865175	-0.473074	0.342175
C64	C	0.865203	-0.527675	0.342180
C65	C	0.905319	-0.554935	0.302161
O66	O	0.831157	-0.614090	0.376190
O67	O	0.979545	-0.613987	0.228128
C68	C	1.068776	-0.251745	0.302242
C69	C	1.138418	-0.251734	0.302273
C70	C	0.905384	-0.251797	0.465592
C71	C	0.905397	-0.251807	0.535233
C72	C	0.905476	-0.115400	0.302211
C73	C	0.905528	-0.057286	0.302230
C74	C	0.945494	-0.218366	0.567976
C75	C	0.945485	-0.218357	0.633411
C76	C	0.905384	-0.251800	0.666102
C77	C	0.865279	-0.285243	0.633351
C78	C	0.865285	-0.285247	0.567917
C79	C	0.900387	-0.298900	0.769765
C80	C	0.900385	-0.298897	0.835198
C81	C	0.905361	-0.251787	0.867922
C82	C	0.910353	-0.204679	0.835206
C83	C	0.910359	-0.204683	0.769772
C84	C	0.905373	-0.251799	0.737054
C85	C	0.945451	-0.218334	0.971618
C86	C	0.945437	-0.218324	1.037054
C87	C	0.865235	-0.285215	1.036993
C88	C	0.865245	-0.285220	0.971557
C89	C	0.905357	-0.251780	0.938874
C90	C	0.905326	-0.251764	1.139381
C91	C	0.905335	-0.251766	1.069740
H92	H	0.548144	-0.191032	0.229563
H93	H	0.832597	-0.312455	0.944898
H94	H	0.792589	-0.801125	0.414837
C95	C	0.336866	-0.242935	0.183664
N96	N	0.309722	-0.239439	0.136905
C97	C	0.894924	-0.350729	0.733774
N98	N	0.890814	-0.389766	0.706667
C99	C	0.135161	-0.181392	0.218277
N100	N	0.108056	-0.153636	0.185147
C101	C	0.989458	-0.442924	0.218096
N102	N	1.022668	-0.420279	0.184927
C103	C	1.029723	-0.808710	0.178132
N104	N	1.062953	-0.831288	0.144964
H105	H	0.832578	-0.312439	1.063609
H106	H	0.832627	-0.312471	0.659972
C107	C	0.989610	-0.181574	0.532028
N108	N	1.022835	-0.153859	0.504950
H109	H	0.832630	-0.312479	0.541258
C110	C	0.272570	-0.181416	0.218226
N111	N	0.299679	-0.153667	0.185074
H112	H	1.018219	-0.701874	0.189557
H113	H	0.464935	-0.244161	0.199745
H114	H	0.792558	-0.702075	0.414829
C115	C	0.135135	-0.322081	0.386263
N116	N	0.108026	-0.349839	0.419404
C117	C	0.676210	-0.181477	0.218085
N118	N	0.703320	-0.153729	0.184933
H119	H	0.832567	-0.549934	0.374776
H120	H	0.978231	-0.953082	0.229604
C121	C	0.894894	-0.350717	0.871179
N122	N	0.890756	-0.389749	0.898279
C123	C	0.474483	-0.260629	0.420680
N124	N	0.501632	-0.264119	0.467437
C125	C	0.821064	-0.443075	0.386191
N126	N	0.787843	-0.420477	0.419349
H127	H	0.978063	-0.549787	0.229556
C128	C	0.989600	-0.181571	0.669435
N129	N	1.022830	-0.153864	0.696567
C130	C	0.989735	-1.059940	0.218191
N131	N	1.022966	-1.082538	0.185044
H132	H	0.978108	-0.191102	0.945005
H133	H	0.666831	-0.312599	0.374641
H134	H	0.914406	-0.166318	0.861849
H135	H	0.832775	-1.052272	0.374830
C136	C	0.821285	-0.945432	0.386271
N137	N	0.788058	-0.922851	0.419439
H138	H	0.978088	-0.191089	1.063712
C139	C	0.538771	-0.322148	0.386117
N140	N	0.511658	-0.349901	0.419261
C141	C	0.337072	-0.260599	0.420731
N142	N	0.310004	-0.264074	0.467506
C143	C	0.272543	-0.322101	0.386220
N144	N	0.299641	-0.349858	0.419354
C145	C	0.915841	-0.152865	0.733787
N146	N	0.919966	-0.113834	0.706683
