data_functionalizedCrystal
_audit_creation_method	'MofGen! by Chris Wilmer'
_symmetry_space_group_name_H-M	'P1'
_symmetry_Int_Tables_number	1
_symmetry_cell_setting	triclinic
loop_
_symmetry_equiv_pos_as_xyz
  x,y,z
_cell_length_a	23.204063
_cell_length_b	23.204116
_cell_length_c	23.204065
_cell_angle_alpha	90.002541
_cell_angle_beta	59.996978
_cell_angle_gamma	119.999629
loop_
_atom_site_label
_atom_site_type_symbol
_atom_site_fract_x
_atom_site_fract_y
_atom_site_fract_z
O1	O	-0.508348	-0.491186	0.903687
O2	O	-0.390334	-0.407383	0.701870
O3	O	-0.508343	-0.407379	0.819877
O4	O	-0.390339	-0.491190	0.785679
O5	O	-0.412492	-0.311529	0.819877
O6	O	-0.294483	-0.311534	0.701869
O7	O	-0.412496	-0.395336	0.903687
Cu8	Cu	-0.344737	-0.344683	0.802778
Cu9	Cu	-0.458093	-0.458036	0.802778
O10	O	-0.294487	-0.395341	0.785679
C11	C	-0.590043	-0.144181	0.838588
C12	C	-0.549587	-0.068162	0.833694
C13	C	-0.659888	-0.179182	0.839076
C14	C	-0.590043	-0.248540	0.838588
C15	C	-0.549586	-0.284102	0.833694
C16	C	-0.659888	-0.283382	0.839076
C17	C	-0.694402	-0.248539	0.838588
C18	C	-0.765526	-0.284101	0.833694
C19	C	-0.555688	-0.179182	0.839076
C20	C	-0.822987	-0.312831	0.829739
C21	C	-0.516901	-0.006747	0.829739
C22	C	-0.516900	-0.312833	0.829739
C23	C	-0.895074	-0.348875	0.824777
C24	C	-0.475896	0.070302	0.824777
C25	C	-0.475895	-0.348877	0.824777
O26	O	-1.083841	-0.491189	0.785679
O27	O	-0.916227	-0.407377	0.819877
O28	O	-0.916222	-0.407382	0.701870
O29	O	-1.083846	-0.491184	0.903687
O30	O	-0.916225	-0.311532	0.701869
O31	O	-0.916230	-0.311528	0.819877
O32	O	-1.083844	-0.395339	0.785679
Cu33	Cu	-1.000037	-0.344681	0.802778
Cu34	Cu	-1.000034	-0.458035	0.802778
O35	O	-1.083849	-0.395334	0.903687
C36	C	-0.212794	-0.248539	0.356975
C37	C	-0.253252	-0.284101	0.321414
C38	C	-0.142950	-0.179182	0.322132
C39	C	-0.212790	-0.248541	0.461332
C40	C	-0.253245	-0.284105	0.537351
C41	C	-0.142946	-0.179184	0.426331
C42	C	-0.108435	-0.144181	0.356975
C43	C	-0.037311	-0.068163	0.321414
C44	C	-0.247147	-0.283383	0.426331
C45	C	0.020148	-0.006747	0.292684
C46	C	-0.285939	-0.312830	0.292684
C47	C	-0.285929	-0.312836	0.598766
C48	C	0.092234	0.070301	0.256641
C49	C	-0.326945	-0.348873	0.256641
C50	C	-0.326931	-0.348881	0.675815
C51	C	-0.181460	-0.492073	0.777896
C52	C	-0.110336	-0.456511	0.782790
C53	C	-0.215973	-0.561430	0.777409
C54	C	-0.285820	-0.492074	0.777896
C55	C	-0.326277	-0.456512	0.782790
C56	C	-0.320174	-0.561431	0.777408
C57	C	-0.285818	-0.596432	0.777896
C58	C	-0.326274	-0.672451	0.782790
C59	C	-0.215975	-0.457231	0.777409
O60	O	-0.390334	0.298169	0.785679
O61	O	-0.508344	0.096358	0.819877
O62	O	-0.390332	0.214359	0.701869
O63	O	-0.508345	0.180167	0.903687
O64	O	-0.294483	0.214356	0.701869
O65	O	-0.412494	0.096355	0.819877
O66	O	-0.294485	0.298166	0.785679
Cu67	Cu	-0.344738	0.197260	0.802778
Cu68	Cu	-0.458091	0.197263	0.802778
O69	O	-0.412496	0.180164	0.903687
O70	O	0.281000	0.298166	0.210188
O71	O	0.113390	0.096355	0.293990
O72	O	0.113381	0.214356	0.294004
O73	O	0.281008	0.180165	0.210174
O74	O	0.113379	0.214358	0.198154
O75	O	0.113387	0.096357	0.198140
O76	O	0.280997	0.298168	0.114338
Cu77	Cu	0.197192	0.197263	0.147487
Cu78	Cu	0.197195	0.197260	0.260841
O79	O	0.281006	0.180168	0.114324
O80	O	-0.412510	-0.395332	0.114338
O81	O	-0.294499	-0.311525	0.198140
O82	O	-0.412513	-0.311528	0.198154
O83	O	-0.294497	-0.395329	0.114324
O84	O	-0.508361	-0.407380	0.294003
O85	O	-0.390347	-0.407376	0.293990
O86	O	-0.508358	-0.491183	0.210188
Cu87	Cu	-0.458104	-0.458032	0.260841
Cu88	Cu	-0.344753	-0.344676	0.147487
O89	O	-0.390344	-0.491180	0.210174
C90	C	-0.621383	-0.596424	1.113452
C91	C	-0.692510	-0.672441	1.149015
C92	C	-0.586871	-0.561422	1.148296
C93	C	-0.517019	-0.492068	1.009091
C94	C	-0.476559	-0.456507	0.933070
C95	C	-0.482665	-0.457225	1.044093
C96	C	-0.517024	-0.492066	1.113452
C97	C	-0.476569	-0.456504	1.149016
C98	C	-0.586866	-0.561424	1.044093
C99	C	-1.285836	-0.492068	1.113453
C100	C	-1.326297	-0.456507	1.149018
C101	C	-1.320190	-0.561424	1.148296
C102	C	-1.181470	-0.492068	1.009091
C103	C	-1.110342	-0.456506	0.933070
C104	C	-1.215983	-0.561423	1.044092
C105	C	-1.285831	-0.596425	1.113451
C106	C	-1.326286	-0.672442	1.149013
C107	C	-1.215988	-0.457226	1.044094
C108	C	-0.517015	0.172391	1.113450
C109	C	-0.476569	0.177267	1.149016
C110	C	-0.586845	0.171929	1.148288
C111	C	-0.517009	0.172397	1.009087
C112	C	-0.476556	0.177281	0.933069
C113	C	-0.586839	0.171936	1.044084
C114	C	-0.621348	0.172433	1.113440
C115	C	-0.692455	0.177355	1.148996
C116	C	-0.482664	0.171893	1.044094
C117	C	-0.590023	-0.144197	0.356963
C118	C	-0.549566	-0.068180	0.321399
C119	C	-0.555665	-0.179200	0.322120
C120	C	-0.694386	-0.248552	0.461326
C121	C	-0.765514	-0.284112	0.537346
C122	C	-0.659870	-0.283396	0.426324
C123	C	-0.590022	-0.248556	0.356965
C124	C	-0.549563	-0.284119	0.321403
C125	C	-0.659871	-0.179196	0.426322
C126	C	-0.516876	-0.312850	0.292673
C127	C	-0.516880	-0.006765	0.292667
C128	C	-0.822977	-0.312840	0.598764
C129	C	-0.475869	-0.348895	0.256629
C130	C	-0.475874	0.070282	0.256621
C131	C	-0.895068	-0.348881	0.675814
O132	O	-1.412489	-0.903631	1.198134
O133	O	-1.294491	-0.701822	1.114332
O134	O	-1.412491	-0.819828	1.114329
O135	O	-1.294489	-0.785626	1.198137
O136	O	-1.508350	-0.819831	1.210184
O137	O	-1.390350	-0.701825	1.210187
O138	O	-1.508347	-0.903635	1.293990
Cu139	Cu	-1.458101	-0.802730	1.260841
Cu140	Cu	-1.344737	-0.802726	1.147481
O141	O	-1.390347	-0.785629	1.293993
C142	C	-0.108405	0.233057	0.356965
C143	C	-0.037280	0.228160	0.321404
C144	C	-0.142916	0.233545	0.322120
C145	C	-0.212769	0.233062	0.461325
C146	C	-0.253230	0.228170	0.537346
C147	C	-0.247121	0.233550	0.426321
C148	C	-0.212761	0.233061	0.356962
C149	C	-0.253214	0.228167	0.321398
C150	C	-0.142924	0.233546	0.426324
C151	C	-0.285897	0.224213	0.292665
C152	C	0.020181	0.224203	0.292674
C153	C	-0.285919	0.224216	0.598763
C154	C	-0.326898	0.219253	0.256619
C155	C	0.092269	0.219239	0.256631
C156	C	-0.326929	0.219257	0.675814
H157	H	-0.499471	-0.151071	0.839839
F158	F	-1.178224	-0.382737	1.007370
H159	H	-0.688764	-0.340366	0.839850
F160	F	-0.409201	-0.382742	1.007362
H161	H	-0.688756	-0.340381	0.454431
F162	F	-0.105194	-0.142453	0.247646
F163	F	-0.393630	-0.598159	0.776377
F164	F	-1.178222	-0.598151	1.007360
H165	H	-1.376393	-0.589521	1.205286
F166	F	-0.697651	-0.142456	0.840112
F167	F	-0.105197	-0.142451	0.463064
F168	F	-0.482199	-0.142471	0.247634
H169	H	-0.303347	-0.340371	0.454428
F170	F	-0.624636	-0.598148	1.222786
H171	H	-0.187075	-0.589524	0.776611
H172	H	-0.615730	0.171145	1.205277
H173	H	-0.426469	0.171095	1.015997
H174	H	-0.187085	-0.400243	0.776622
H175	H	-0.303327	0.234333	0.454426
H176	H	-0.615750	-0.589529	1.015992
F177	F	-0.624578	0.170936	1.007346
F178	F	-0.697626	-0.142464	0.463053
H179	H	-0.114014	0.234343	0.265127
H180	H	-0.114031	0.234341	0.454421
