data_functionalizedCrystal
_audit_creation_method	'MofGen! by Chris Wilmer'
_symmetry_space_group_name_H-M	'P1'
_symmetry_Int_Tables_number	1
_symmetry_cell_setting	triclinic
loop_
_symmetry_equiv_pos_as_xyz
  x,y,z
_cell_length_a	21.295418
_cell_length_b	12.594516
_cell_length_c	21.295411
_cell_angle_alpha	90.011599
_cell_angle_beta	89.956262
_cell_angle_gamma	89.968131
loop_
_atom_site_label
_atom_site_type_symbol
_atom_site_fract_x
_atom_site_fract_y
_atom_site_fract_z
Zn1	Zn	0.962419	0.423414	-0.356278
Zn2	Zn	1.462419	0.923414	0.143722
Zn3	Zn	0.962348	0.601379	-0.251021
Zn4	Zn	1.462348	1.101379	0.248979
Zn5	Zn	0.857142	0.423464	-0.250987
Zn6	Zn	1.357142	0.923464	0.249013
Zn7	Zn	0.857138	0.601400	-0.356218
Zn8	Zn	1.357138	1.101400	0.143782
O9	O	0.909762	0.512414	-0.303626
O10	O	1.409762	1.012414	0.196374
O11	O	1.050499	0.446992	-0.342354
O12	O	1.550499	0.946992	0.157646
O13	O	0.948364	0.577790	-0.162927
O14	O	1.448364	1.077790	0.337073
O15	O	0.871139	0.274512	-0.264965
O16	O	1.371139	0.774512	0.235035
O17	O	1.050447	0.577742	-0.265023
O18	O	1.550447	1.077742	0.234977
O19	O	0.948485	0.274475	-0.342321
O20	O	1.448485	0.774475	0.157679
O21	O	0.871070	0.447077	-0.162902
O22	O	1.371070	0.947077	0.337098
O23	O	0.769052	0.447097	-0.264907
O24	O	1.269052	0.947097	0.235093
O25	O	0.871132	0.577778	-0.444315
O26	O	1.371132	1.077778	0.055685
O27	O	0.769049	0.577826	-0.342220
O28	O	1.269049	1.077826	0.157780
O29	O	0.948481	0.447012	-0.444359
O30	O	1.448481	0.947012	0.055641
O31	O	0.948360	0.750328	-0.264965
O32	O	1.448360	1.250328	0.235035
O33	O	0.871063	0.750343	-0.342253
O34	O	1.371063	1.250343	0.157747
C35	C	0.746210	0.512470	-0.303554
C36	C	1.246210	1.012470	0.196446
C37	C	0.676242	0.512520	-0.303538
C38	C	1.176242	1.012520	0.196462
C39	C	0.909721	0.788955	-0.303620
C40	C	1.409721	1.288955	0.196380
C41	C	0.909760	0.907261	-0.303638
C42	C	1.409760	1.407261	0.196362
C43	C	0.909814	0.512392	-0.467816
C44	C	1.409814	1.012392	0.032184
C45	C	0.909836	0.512382	-0.537785
C46	C	1.409836	1.012382	-0.037785
C47	C	0.643390	0.580680	-0.343734
C48	C	1.143390	1.080680	0.156266
C49	C	0.577648	0.580654	-0.343762
C50	C	1.077648	1.080654	0.156238
C51	C	0.544760	0.512479	-0.303583
C52	C	1.044760	1.012479	0.196417
C53	C	0.577619	0.444305	-0.263384
C54	C	1.077619	0.944305	0.236616
C55	C	0.643360	0.444325	-0.263361
C56	C	1.143360	0.944325	0.236639
N57	N	0.441482	0.504148	-0.248524
N58	N	0.941482	1.004148	0.251476
N59	N	0.379031	0.504134	-0.248548
N60	N	0.879031	1.004134	0.251452
C61	C	0.346685	0.512411	-0.303650
C62	C	0.846685	1.012411	0.196350
N63	N	0.379150	0.520722	-0.358729
N64	N	0.879150	1.020722	0.141271
N65	N	0.441607	0.520741	-0.358705
N66	N	0.941607	1.020741	0.141295
C67	C	0.473474	0.512448	-0.303603
C68	C	0.973474	1.012448	0.196397
C69	C	0.242548	0.580547	-0.343880
C70	C	0.742548	1.080547	0.156120
C71	C	0.176804	0.580513	-0.343909
C72	C	0.676804	1.080513	0.156091
C73	C	0.176777	0.444169	-0.263525
C74	C	0.676777	0.944169	0.236475
C75	C	0.242519	0.444197	-0.263501
C76	C	0.742519	0.944197	0.236499
C77	C	0.275401	0.512391	-0.303678
C78	C	0.775401	1.012391	0.196322
C79	C	1.073952	0.512359	-0.303699
C80	C	1.573952	1.012359	0.196301
C81	C	1.143920	0.512335	-0.303730
C82	C	1.643920	1.012335	0.196270
C83	C	0.909820	0.234793	-0.303646
C84	C	1.409820	0.734793	0.196354
C85	C	0.909845	0.116488	-0.303655
C86	C	1.409845	0.616488	0.196345
C87	C	0.867714	0.976561	-0.345645
C88	C	1.367714	1.476561	0.154355
C89	C	0.852373	1.047409	-0.288200
C90	C	1.352373	1.547409	0.211800
C91	C	0.925159	1.047212	-0.361094
C92	C	1.425159	1.547212	0.138906
C93	C	0.894389	0.976550	-0.246162
C94	C	1.394389	1.476550	0.253838
C95	C	0.967201	0.976347	-0.319095
C96	C	1.467201	1.476347	0.180905
C97	C	0.951882	1.047163	-0.261610
C98	C	1.451882	1.547163	0.238390
C99	C	0.950110	0.444290	-0.570675
C100	C	1.450110	0.944290	-0.070675
C101	C	0.950110	0.444243	-0.636418
C102	C	1.450110	0.944243	-0.136418
C103	C	0.909841	0.512309	-0.669267
C104	C	1.409841	1.012309	-0.169267
C105	C	0.869559	0.580406	-0.636369
C106	C	1.369559	1.080406	-0.136369
C107	C	0.869557	0.580443	-0.570627
C108	C	1.369557	1.080443	-0.070627
N109	N	0.904998	0.605422	-0.772491
N110	N	1.404998	1.105422	-0.272491
N111	N	0.905004	0.605385	-0.834942
N112	N	1.405004	1.105385	-0.334942
C113	C	0.909845	0.512201	-0.867342
C114	C	1.409845	1.012201	-0.367342
N115	N	0.914692	0.419055	-0.834931
N116	N	1.414692	0.919055	-0.334931
N117	N	0.914689	0.419094	-0.772474
N118	N	1.414689	0.919094	-0.272474
C119	C	0.909839	0.512276	-0.740553
C120	C	1.409839	1.012276	-0.240553
C121	C	0.950120	0.444053	-0.971518
C122	C	1.450120	0.944053	-0.471518
C123	C	0.950115	0.444005	-1.037262
C124	C	1.450115	0.944005	-0.537262
C125	C	0.869568	0.580177	-1.037212
C126	C	1.369568	1.080177	-0.537212
C127	C	0.869570	0.580216	-0.971469
C128	C	1.369570	1.080216	-0.471469
C129	C	0.909850	0.512155	-0.938626
C130	C	1.409850	1.012155	-0.438626
C131	C	0.909746	0.512360	-0.140074
C132	C	1.409746	1.012360	0.359926
C133	C	0.909846	0.512070	-0.070107
C134	C	1.409846	1.012070	0.429893
H135	H	0.670158	0.636208	-0.376450
H136	H	1.170158	1.136208	0.123550
H137	H	0.836775	0.635587	-1.063957
H138	H	1.336775	1.135587	-0.563957
H139	H	0.836778	0.635670	-0.944689
H140	H	1.336778	1.135670	-0.444689
H141	H	0.836758	0.635891	-0.543848
H142	H	1.336758	1.135891	-0.043848
H143	H	0.150057	0.636015	-0.376646
H144	H	0.650057	1.136015	0.123354
O145	O	0.830475	0.646676	-0.668206
O146	O	1.330475	1.146676	-0.168206
C147	C	0.844218	0.752764	-0.652169
C148	C	1.344218	1.252764	-0.152169
H149	H	0.868414	0.754986	-0.604453
H150	H	1.368414	1.254986	-0.104453
H151	H	0.798777	0.800506	-0.649890
H152	H	1.298777	1.300506	-0.149890
H153	H	0.876577	0.788585	-0.689193
H154	H	1.376577	1.288585	-0.189193
O155	O	0.144740	0.378068	-0.224499
O156	O	0.644740	0.878068	0.275501
C157	C	0.079669	0.392656	-0.233142
C158	C	0.579669	0.892656	0.266858
H159	H	0.070681	0.474831	-0.253702
H160	H	0.570681	0.974831	0.246298
H161	H	0.054643	0.385355	-0.186000
H162	H	0.554643	0.885355	0.314000
H163	H	0.061066	0.329578	-0.266713
H164	H	0.561066	0.829578	0.233287
H165	H	0.269267	0.388698	-0.230766
H166	H	0.769267	0.888698	0.269234
H167	H	0.550895	0.636158	-0.376497
H168	H	1.050895	1.136158	0.123503
H169	H	0.982908	0.388868	-0.543938
H170	H	1.482908	0.888868	-0.043938
H171	H	0.803836	1.078645	-0.275140
H172	H	1.303836	1.578645	0.224860
O173	O	0.545648	0.378235	-0.224282
O174	O	1.045648	0.878235	0.275718
C175	C	0.507541	0.438724	-0.183587
C176	C	1.007541	0.938724	0.316413
H177	H	0.527313	0.522550	-0.179612
H178	H	1.027313	1.022550	0.320388
H179	H	0.506762	0.400111	-0.135179
H180	H	1.006762	0.900111	0.364821
H181	H	0.457736	0.442424	-0.203059
H182	H	0.957736	0.942424	0.296941
H183	H	0.982915	0.388627	-0.944776
H184	H	1.482915	0.888627	-0.444776
H185	H	1.015727	0.945114	-0.332183
H186	H	1.515727	1.445114	0.167817
O187	O	0.675178	0.378082	-0.224250
O188	O	1.175178	0.878082	0.275750
C189	C	0.632057	0.317878	-0.188804
C190	C	1.132057	0.817878	0.311196
H191	H	0.585171	0.361448	-0.186599
H192	H	1.085171	0.861448	0.313401
H193	H	0.651001	0.306409	-0.139211
H194	H	1.151001	0.806409	0.360789
H195	H	0.625131	0.237094	-0.211938
H196	H	1.125131	0.737094	0.288062
O197	O	0.274396	0.646810	-0.382971
O198	O	0.774396	1.146810	0.117029
C199	C	0.231299	0.706977	-0.418451
C200	C	0.731299	1.206977	0.081549
H201	H	0.184458	0.663369	-0.420690
H202	H	0.684458	1.163369	0.079310
H203	H	0.250345	0.718455	-0.468031
H204	H	0.750345	1.218455	0.031969
H205	H	0.224245	0.787757	-0.395326
H206	H	0.724245	1.287757	0.104674
H207	H	0.832094	0.945558	-0.381118
H208	H	1.332094	1.445558	0.118882
H209	H	0.881343	0.945640	-0.197566
H210	H	1.381343	1.445640	0.302434
O211	O	0.994274	1.083875	-0.219107
O212	O	1.494274	1.583875	0.280893
C213	C	0.977859	1.047654	-0.158644
C214	C	1.477859	1.547654	0.341356
H215	H	0.925625	1.028002	-0.157379
H216	H	1.425625	1.528002	0.342621
H217	H	0.988468	1.112241	-0.122676
H218	H	1.488468	1.612241	0.377324
H219	H	1.006210	0.973433	-0.146982
H220	H	1.506210	1.473433	0.353018
H221	H	0.938149	1.078251	-0.409677
H222	H	1.438149	1.578251	0.090323
H223	H	0.982904	0.388788	-0.663202
H224	H	1.482904	0.888788	-0.163202
O225	O	0.989299	0.377821	-1.069116
O226	O	1.489299	0.877821	-0.569116
C227	C	1.024836	0.317743	-1.026028
C228	C	1.524836	0.817743	-0.526028
H229	H	1.027004	0.361369	-0.979171
H230	H	1.527004	0.861369	-0.479171
H231	H	1.074436	0.306369	-1.045059
H232	H	1.574436	0.806369	-0.545059
H233	H	1.001806	0.236914	-1.019010
H234	H	1.501806	0.736914	-0.519010
