data_functionalizedCrystal
_audit_creation_method	'MofGen! by Chris Wilmer'
_symmetry_space_group_name_H-M	'P1'
_symmetry_Int_Tables_number	1
_symmetry_cell_setting	triclinic
loop_
_symmetry_equiv_pos_as_xyz
  x,y,z
_cell_length_a	18.050591
_cell_length_b	13.032721
_cell_length_c	13.032268
_cell_angle_alpha	103.289627
_cell_angle_beta	97.156847
_cell_angle_gamma	97.201340
loop_
_atom_site_label
_atom_site_type_symbol
_atom_site_fract_x
_atom_site_fract_y
_atom_site_fract_z
Zn1	Zn	1.031220	-0.499207	-0.654387
Zn2	Zn	1.364553	-0.165874	-0.321054
Zn3	Zn	1.697887	0.167459	0.012280
Zn4	Zn	1.031139	-0.654292	-0.499335
Zn5	Zn	1.364472	-0.320958	-0.166001
Zn6	Zn	1.697806	0.012375	0.167332
Zn7	Zn	0.925098	-0.476689	-0.476788
Zn8	Zn	1.258431	-0.143356	-0.143454
Zn9	Zn	1.591764	0.189977	0.189879
Zn10	Zn	0.888950	-0.676748	-0.676851
Zn11	Zn	1.222283	-0.343415	-0.343518
Zn12	Zn	1.555617	-0.010082	-0.010185
O13	O	0.969102	-0.576734	-0.576840
O14	O	1.302435	-0.243401	-0.243507
O15	O	1.635768	0.089932	0.089827
O16	O	1.135128	-0.519805	-0.633854
O17	O	1.468462	-0.186472	-0.300520
O18	O	1.801795	0.146861	0.032813
O19	O	1.032166	-0.611910	-0.347727
O20	O	1.365499	-0.278577	-0.014393
O21	O	1.698833	0.054756	0.318940
O22	O	0.954337	-0.331048	-0.481509
O23	O	1.287670	0.002286	-0.148176
O24	O	1.621003	0.335619	0.185158
O25	O	1.135069	-0.633745	-0.519938
O26	O	1.468402	-0.300412	-0.186604
O27	O	1.801735	0.032921	0.146729
O28	O	1.032304	-0.347592	-0.611991
O29	O	1.365638	-0.014258	-0.278657
O30	O	1.698971	0.319075	0.054676
O31	O	0.954258	-0.481427	-0.331161
O32	O	1.287591	-0.148093	0.002172
O33	O	1.620925	0.185240	0.335505
O34	O	0.816383	-0.503202	-0.503292
O35	O	1.149717	-0.169868	-0.169958
O36	O	1.483050	0.163465	0.163375
O37	O	0.892729	-0.672019	-0.822488
O38	O	1.226062	-0.338686	-0.489155
O39	O	1.559395	-0.005352	-0.155822
O40	O	0.789826	-0.650184	-0.650278
O41	O	1.123159	-0.316851	-0.316944
O42	O	1.456493	0.016482	0.016389
O43	O	0.997254	-0.541581	-0.805984
O44	O	1.330587	-0.208247	-0.472651
O45	O	1.663920	0.125086	-0.139317
O46	O	0.997115	-0.805899	-0.541720
O47	O	1.330449	-0.472566	-0.208387
O48	O	1.663782	-0.139233	0.124947
O49	O	0.892650	-0.822398	-0.672141
O50	O	1.225983	-0.489065	-0.338807
O51	O	1.559317	-0.155731	-0.005474
C52	C	0.940969	-0.852689	-0.611838
C53	C	1.274302	-0.519356	-0.278505
C54	C	1.607636	-0.186023	0.054829
C55	C	0.928998	-0.970749	-0.626846
C56	C	1.262332	-0.637415	-0.293512
C57	C	1.595665	-0.304082	0.039821
C58	C	0.776159	-0.576687	-0.576776
C59	C	1.109493	-0.243354	-0.243443
C60	C	1.442826	0.089979	0.089890
C61	C	0.693613	-0.576696	-0.576778
C62	C	1.026946	-0.243363	-0.243444
C63	C	1.360279	0.089971	0.089889
C64	C	0.975384	-1.015191	-0.569055
C65	C	1.308717	-0.681858	-0.235722
C66	C	1.642051	-0.348525	0.097611
C67	C	0.963013	-1.137212	-0.584565
C68	C	1.296346	-0.803878	-0.251232
C69	C	1.629679	-0.470545	0.082102
C70	C	0.508574	-0.496705	-0.497000
C71	C	0.841908	-0.163372	-0.163666
C72	C	1.175241	0.169961	0.169667
C73	C	0.451966	-0.590267	-0.483163
C74	C	0.785300	-0.256933	-0.149830
C75	C	1.118633	0.076400	0.183504
C76	C	0.542474	-0.576734	-0.576830
C77	C	0.875808	-0.243401	-0.243496
C78	C	1.209141	0.089932	0.089837
C79	C	0.451997	-0.483206	-0.590668
C80	C	0.785331	-0.149873	-0.257335
C81	C	1.118664	0.183461	0.075999
C82	C	0.396482	-0.576762	-0.576877
C83	C	0.729816	-0.243429	-0.243544
C84	C	1.063149	0.089904	0.089790
C85	C	0.486954	-0.670340	-0.562949
C86	C	0.820287	-0.337007	-0.229615
C87	C	1.153620	-0.003673	0.103718
C88	C	0.486991	-0.563220	-0.670491
C89	C	0.820324	-0.229887	-0.337157
C90	C	1.153658	0.103447	-0.003824
C91	C	0.430395	-0.656853	-0.656699
C92	C	0.763728	-0.323519	-0.323366
C93	C	1.097061	0.009814	0.009967
C94	C	0.626577	-0.576716	-0.576800
C95	C	0.959910	-0.243383	-0.243466
C96	C	1.293244	0.089951	0.089867
C97	C	0.312380	-0.576791	-0.576909
C98	C	0.645714	-0.243458	-0.243575
C99	C	0.979047	0.089875	0.089758
C100	C	1.162797	-0.576782	-0.576905
C101	C	1.496130	-0.243449	-0.243572
C102	C	1.829464	0.089884	0.089762
C103	C	1.245338	-0.576803	-0.576932
C104	C	1.578672	-0.243469	-0.243599
C105	C	1.912005	0.089864	0.089734
C106	C	0.940968	-0.611817	-0.853849
C107	C	1.274301	-0.278483	-0.520515
C108	C	1.607635	0.054850	-0.187182
C109	C	0.928979	-0.626767	-0.971893
C110	C	1.262312	-0.293433	-0.638560
C111	C	1.595646	0.039900	-0.305226
C112	C	0.997362	-0.299704	-0.541729
C113	C	1.330695	0.033629	-0.208396
C114	C	1.664028	0.366962	0.124938
C115	C	1.009405	-0.181651	-0.526767
C116	C	1.342738	0.151682	-0.193433
C117	C	1.676071	0.485016	0.139900
C118	C	0.975351	-0.568893	-1.016355
C119	C	1.308684	-0.235560	-0.683022
C120	C	1.642018	0.097773	-0.349688
C121	C	0.962961	-0.584344	-1.138360
C122	C	1.296294	-0.251010	-0.805026
C123	C	1.629628	0.082323	-0.471693
C124	C	0.997176	-0.541712	-0.300900
C125	C	1.330510	-0.208378	0.032434
C126	C	1.663843	0.124955	0.365767
C127	C	1.009339	-0.526462	-0.182818
C128	C	1.342673	-0.193129	0.150515
C129	C	1.676006	0.140204	0.483849
H130	H	1.024258	-0.962908	-0.508100
H131	H	1.357591	-0.629575	-0.174767
H132	H	1.690925	-0.296242	0.158567
C133	C	0.896931	-0.666736	-1.208938
C134	C	1.230264	-0.333403	-0.875605
C135	C	1.563598	-0.000069	-0.542271
H136	H	0.869441	-0.701037	-1.165221
H137	H	1.202774	-0.367703	-0.831888
H138	H	1.536108	-0.034370	-0.498555
H139	H	0.916252	-0.718460	-1.258083
H140	H	1.249586	-0.385127	-0.924750
H141	H	1.582919	-0.051793	-0.591416
H142	H	0.864354	-0.631531	-1.247040
H143	H	1.197687	-0.298198	-0.913707
H144	H	1.531020	0.035136	-0.580373
C145	C	1.075368	-0.444069	-1.112237
C146	C	1.408701	-0.110736	-0.778904
C147	C	1.742035	0.222597	-0.445570
H148	H	1.075038	-0.444496	-1.039496
H149	H	1.408371	-0.111163	-0.706162
H150	H	1.741705	0.222170	-0.372829
H151	H	1.069954	-0.374984	-1.121315
H152	H	1.403287	-0.041651	-0.787982
H153	H	1.736620	0.291683	-0.454648
H154	H	1.121852	-0.461913	-1.132348
H155	H	1.455186	-0.128580	-0.799015
H156	H	1.788519	0.204753	-0.465682
H157	H	0.914141	-1.189495	-0.645532
H158	H	1.247474	-0.856161	-0.312199
H159	H	1.580807	-0.522828	0.021134
C160	C	0.862977	-1.041368	-0.709201
C161	C	1.196310	-0.708035	-0.375868
C162	C	1.529643	-0.374701	-0.042535
H163	H	0.835482	-0.997663	-0.743453
H164	H	1.168816	-0.664329	-0.410120
H165	H	1.502149	-0.330996	-0.076786
H166	H	0.830411	-1.079546	-0.674000
H167	H	1.163744	-0.746213	-0.340667
H168	H	1.497077	-0.412879	-0.007334
H169	H	0.882311	-1.090453	-0.760976
H170	H	1.215644	-0.757119	-0.427643
H171	H	1.548977	-0.423786	-0.094310
H172	H	1.058282	-1.129370	-0.465807
H173	H	1.391615	-0.796037	-0.132474
H174	H	1.724948	-0.462703	0.200859
C175	C	0.554315	-0.405360	-0.405730
C176	C	0.887648	-0.072027	-0.072397
C177	C	1.220982	0.261306	0.260936
H178	H	0.542483	-0.415155	-0.339254
H179	H	0.875816	-0.081821	-0.005920
H180	H	1.209150	0.251512	0.327413
H181	H	0.541858	-0.338998	-0.414889
H182	H	0.875191	-0.005664	-0.081556
H183	H	1.208525	0.327669	0.251777
H184	H	0.606829	-0.405594	-0.406731
H185	H	0.940162	-0.072261	-0.073398
H186	H	1.273496	0.261072	0.259935
C187	C	0.430852	-0.605736	-0.376196
C188	C	0.764185	-0.272403	-0.042863
C189	C	1.097518	0.060931	0.290470
H190	H	0.457983	-0.548807	-0.319530
H191	H	0.791316	-0.215474	0.013803
H192	H	1.124650	0.117860	0.347137
H193	H	0.443460	-0.671637	-0.365831
H194	H	0.776793	-0.338303	-0.032498
H195	H	1.110126	-0.004970	0.300835
H196	H	0.378085	-0.606282	-0.377230
H197	H	0.711418	-0.272949	-0.043897
H198	H	1.044751	0.060384	0.289437
H199	H	0.880102	-0.687745	-1.024150
H200	H	1.213435	-0.354412	-0.690817
H201	H	1.546768	-0.021079	-0.357484
H202	H	0.502460	-0.749460	-0.551175
H203	H	0.835793	-0.416126	-0.217842
H204	H	1.169127	-0.082793	0.115492
H205	H	0.396668	-0.724612	-0.724238
H206	H	0.730001	-0.391279	-0.390904
H207	H	1.063335	-0.057945	-0.057571
H208	H	0.502638	-0.551736	-0.749648
H209	H	0.835972	-0.218402	-0.416315
H210	H	1.169305	0.114931	-0.082981
H211	H	0.436371	-0.404105	-0.602319
H212	H	0.769704	-0.070772	-0.268985
H213	H	1.103038	0.262561	0.064348
C214	C	1.041377	-0.486508	-0.945769
C215	C	1.374710	-0.153174	-0.612435
C216	C	1.708044	0.180159	-0.279102
H217	H	1.041046	-0.486937	-0.873028
H218	H	1.374379	-0.153604	-0.539695
H219	H	1.707713	0.179729	-0.206361
H220	H	1.035965	-0.417421	-0.954844
H221	H	1.369298	-0.084087	-0.621511
H222	H	1.702632	0.249246	-0.288177
H223	H	1.087861	-0.504354	-0.965880
H224	H	1.421194	-0.171020	-0.632547
H225	H	1.754527	0.162313	-0.299213
