data_functionalizedCrystal
_audit_creation_method	'MofGen! by Chris Wilmer'
_symmetry_space_group_name_H-M	'P1'
_symmetry_Int_Tables_number	1
_symmetry_cell_setting	triclinic
loop_
_symmetry_equiv_pos_as_xyz
  x,y,z
_cell_length_a	16.992694
_cell_length_b	15.944551
_cell_length_c	15.455313
_cell_angle_alpha	92.664316
_cell_angle_beta	87.142206
_cell_angle_gamma	87.083481
loop_
_atom_site_label
_atom_site_type_symbol
_atom_site_fract_x
_atom_site_fract_y
_atom_site_fract_z
O1	O	1.043832	0.174669	-0.072025
O2	O	1.543832	0.674669	0.427975
O3	O	0.815548	0.172714	-0.072051
O4	O	1.315548	0.672714	0.427949
O5	O	0.935924	0.051836	-0.072029
O6	O	1.435924	0.551836	0.427971
O7	O	0.923457	0.295548	-0.072046
O8	O	1.423457	0.795548	0.427954
O9	O	0.929040	0.058718	0.072232
O10	O	1.429040	0.558718	0.572232
O11	O	0.808664	0.179596	0.072210
O12	O	1.308664	0.679596	0.572210
O13	O	1.036949	0.181551	0.072236
O14	O	1.536949	0.681551	0.572236
Cu15	Cu	0.922178	0.181202	0.085395
Cu16	Cu	1.422178	0.681202	0.585395
Cu17	Cu	0.930319	0.173063	-0.085210
Cu18	Cu	1.430319	0.673063	0.414790
O19	O	0.916573	0.302430	0.072215
O20	O	1.416573	0.802430	0.572215
C21	C	0.782894	0.173641	0.000077
C22	C	1.282894	0.673641	0.500077
C23	C	0.695850	0.166141	0.000067
C24	C	1.195850	0.666141	0.500067
C25	C	0.645613	0.238506	0.000063
C26	C	1.145613	0.738506	0.500063
C27	C	0.563826	0.231454	0.000075
C28	C	1.063826	0.731454	0.500075
C29	C	0.532276	0.152037	0.000086
C30	C	1.032276	0.652037	0.500086
C31	C	0.582519	0.079667	0.000093
C32	C	1.082519	0.579667	0.500093
C33	C	0.664305	0.086719	0.000087
C34	C	1.164305	0.586719	0.500087
C35	C	0.288676	0.122807	0.000111
C36	C	0.788676	0.622807	0.500111
C37	C	0.206884	0.115760	0.000115
C38	C	0.706884	0.615760	0.500115
C39	C	0.188196	0.267548	0.000099
C40	C	0.688196	0.767548	0.500099
C41	C	0.269984	0.274593	0.000087
C42	C	0.769984	0.774593	0.500087
C43	C	0.320220	0.202223	0.000099
C44	C	0.820220	0.702223	0.500099
N45	N	0.448677	0.144827	0.000096
N46	N	0.948677	0.644827	0.500096
N47	N	0.403817	0.209434	0.000095
N48	N	0.903817	0.709434	0.500095
C49	C	0.931964	0.023948	0.000101
C50	C	1.431964	0.523948	0.500101
C51	C	0.930413	-0.069402	0.000102
C52	C	1.430413	0.430598	0.500102
C53	C	0.852089	-0.289513	0.000081
C54	C	1.352089	0.210487	0.500081
C55	C	0.885066	-0.344697	0.071214
C56	C	1.385066	0.155303	0.571214
C57	C	0.927606	-0.240317	0.000095
C58	C	1.427606	0.259683	0.500095
C59	C	0.891871	-0.351465	-0.071016
C60	C	1.391871	0.148535	0.428984
C61	C	0.924889	-0.405412	0.000084
C62	C	1.424889	0.094588	0.500084
C63	C	0.960600	-0.294269	0.071287
C64	C	1.460600	0.205731	0.571287
C65	C	0.967397	-0.301034	-0.071007
C66	C	1.467397	0.198966	0.428993
C67	C	1.000428	-0.356196	0.000144
C68	C	1.500428	0.143804	0.500144
C69	C	0.929168	-0.145209	0.000101
C70	C	1.429168	0.354791	0.500101
C71	C	0.923332	-0.500518	0.000084
C72	C	1.423332	-0.000518	0.500084
C73	C	1.069603	0.180624	0.000107
C74	C	1.569603	0.680624	0.500107
C75	C	1.156647	0.188124	0.000110
C76	C	1.656647	0.688124	0.500110
C77	C	0.920532	0.330318	0.000082
C78	C	1.420532	0.830318	0.500082
C79	C	0.922084	0.423668	0.000076
C80	C	1.422084	0.923668	0.500076
N81	N	0.916458	0.186926	0.205390
N82	N	1.416458	0.686926	0.705390
N83	N	0.936045	0.167333	-0.205204
N84	N	1.436045	0.667333	0.294796
C85	C	0.967616	0.135594	0.250793
C86	C	1.467616	0.635594	0.750793
C87	C	0.963297	0.139932	0.341600
C88	C	1.463297	0.639932	0.841600
C89	C	0.907824	0.195606	0.387002
C90	C	1.407824	0.695606	0.887002
C91	C	0.856661	0.246940	0.341593
C92	C	1.356661	0.746940	0.841593
C93	C	0.860976	0.242598	0.250787
C94	C	1.360976	0.742598	0.750787
C95	C	0.889197	0.214325	0.658581
C96	C	1.389197	0.714325	1.158581
C97	C	0.884887	0.218665	0.749392
C98	C	1.384887	0.718665	1.249392
C99	C	0.991523	0.111655	0.749393
C100	C	1.491523	0.611655	1.249393
C101	C	0.995836	0.107321	0.658586
C102	C	1.495836	0.607321	1.158586
C103	C	0.944671	0.158653	0.613185
C104	C	1.444671	0.658653	1.113185
N105	N	0.903410	0.200042	0.479822
N106	N	1.403410	0.700042	0.979822
N107	N	0.949081	0.154211	0.520367
N108	N	1.449081	0.654211	1.020367
H109	H	0.671294	0.303176	0.000054
H110	H	1.171294	0.803176	0.500054
H111	H	1.033179	0.069863	0.786368
H112	H	1.533179	0.569863	1.286368
H113	H	1.004953	0.098132	0.378567
H114	H	1.504953	0.598132	0.878567
C115	C	0.243293	0.423922	0.000087
C116	C	0.743293	0.923922	0.500087
C117	C	0.304660	0.361892	0.000084
C118	C	0.804660	0.861892	0.500084
H119	H	0.264702	0.477816	0.000089
H120	H	0.764702	0.977816	0.500089
H121	H	0.214177	0.415617	-0.050215
H122	H	0.714177	0.915617	0.449785
H123	H	0.209387	0.420408	0.050400
H124	H	0.709387	0.920408	0.550400
H125	H	0.338562	0.365402	-0.050232
H126	H	0.838562	0.865402	0.449768
H127	H	0.333788	0.370200	0.050391
H128	H	0.833788	0.870200	0.550391
H129	H	1.002180	-0.281632	-0.131141
H130	H	1.502180	0.218368	0.368859
C131	C	1.128453	-0.372153	-0.073568
C132	C	1.628453	0.127847	0.426432
C133	C	1.085126	-0.395255	0.000204
C134	C	1.585126	0.104745	0.500204
H135	H	1.180745	-0.396255	-0.073523
H136	H	1.680745	0.103745	0.426477
H137	H	1.104177	-0.391886	-0.124123
H138	H	1.604177	0.108114	0.375877
H139	H	1.129832	-0.312648	-0.073080
H140	H	1.629832	0.187352	0.426920
H141	H	1.083743	-0.454760	-0.000287
H142	H	1.583743	0.045240	0.499713
H143	H	1.109409	-0.375526	0.050772
H144	H	1.609409	0.124474	0.550772
H145	H	0.147286	0.326467	0.000091
H146	H	0.647286	0.826467	0.500091
C147	C	0.774948	-0.351466	-0.152063
C148	C	1.274948	0.148534	0.347937
C149	C	0.852615	-0.385344	-0.152201
C150	C	1.352615	0.114656	0.347799
H151	H	0.750713	-0.372376	-0.202184
H152	H	1.250713	0.127624	0.297816
H153	H	0.746230	-0.367126	-0.101565
H154	H	1.246230	0.132874	0.398435
H155	H	0.775231	-0.291918	-0.152361
H156	H	1.275231	0.208082	0.347639
H157	H	0.852332	-0.444892	-0.151897
H158	H	1.352332	0.055108	0.348103
H159	H	0.881340	-0.369689	-0.202713
H160	H	1.381340	0.130311	0.297287
H161	H	0.789404	-0.260406	0.000145
H162	H	1.289404	0.239594	0.500145
C163	C	0.201159	-0.019336	-0.074022
C164	C	0.701159	0.480664	0.425978
C165	C	0.172202	0.028459	0.000129
C166	C	0.672202	0.528459	0.500129
H167	H	0.179749	-0.073229	-0.074011
H168	H	0.679749	0.426771	0.425989
H169	H	0.186311	0.008290	-0.124324
H170	H	0.686311	0.508290	0.375676
H171	H	0.257057	-0.025493	-0.074011
H172	H	0.757057	0.474507	0.425989
H173	H	0.116304	0.034621	0.000114
H174	H	0.616304	0.534621	0.500114
H175	H	0.187045	0.000826	0.050443
H176	H	0.687045	0.500826	0.550443
H177	H	0.811490	0.292268	0.378565
H178	H	1.311490	0.792268	0.878565
C179	C	1.072579	0.030250	0.259924
C180	C	1.572579	0.530250	0.759924
C181	C	1.028593	0.074393	0.200891
C182	C	1.528593	0.574393	0.700891
H183	H	1.110219	-0.007539	0.229117
H184	H	1.610219	0.492461	0.729117
H185	H	1.099099	0.068818	0.295328
H186	H	1.599099	0.568818	0.795328
H187	H	1.038248	-0.000478	0.295354
H188	H	1.538248	0.499522	0.795354
H189	H	1.062923	0.105126	0.165465
H190	H	1.562923	0.605126	0.665465
H191	H	1.002071	0.035819	0.165472
H192	H	1.502071	0.535819	0.665472
H193	H	0.329568	0.063878	0.000121
H194	H	0.829568	0.563878	0.500121
C195	C	1.100800	0.001973	0.667712
C196	C	1.600800	0.501973	1.167712
C197	C	1.056810	0.046117	0.608683
C198	C	1.556810	0.546117	1.108683
H199	H	1.138440	-0.035814	0.636901
H200	H	1.638440	0.464186	1.136901
H201	H	1.127321	0.040541	0.703116
H202	H	1.627321	0.540541	1.203116
H203	H	1.066471	-0.028757	0.703142
H204	H	1.566471	0.471243	1.203142
H205	H	1.091138	0.076853	0.573256
H206	H	1.591138	0.576853	1.073256
H207	H	1.030288	0.007544	0.573264
H208	H	1.530288	0.507544	1.073264
H209	H	0.556825	0.015004	0.000114
H210	H	1.056825	0.515004	0.500114
H211	H	0.847537	0.256123	0.621622
H212	H	1.347537	0.756123	1.121622
C213	C	0.674568	-0.064024	0.000088
C214	C	1.174568	0.435976	0.500088
C215	C	0.719529	0.007174	0.000083
C216	C	1.219529	0.507174	0.500083
H217	H	0.708662	-0.113133	0.000083
H218	H	1.208662	0.386867	0.500083
H219	H	0.639890	-0.061219	0.050395
H220	H	1.139890	0.438781	0.550395
H221	H	0.644670	-0.066011	-0.050220
H222	H	1.144670	0.433989	0.449780
H223	H	0.749422	0.009164	0.050395
H224	H	1.249422	0.509164	0.550395
H225	H	0.754221	0.004368	-0.050228
H226	H	1.254221	0.504368	0.449772
H227	H	0.522926	0.290381	0.000071
H228	H	1.022926	0.790381	0.500071
H229	H	0.850256	-0.364079	0.131345
H230	H	1.350256	0.135921	0.631345
H231	H	0.839712	0.264005	0.786355
H232	H	1.339712	0.764005	1.286355
C233	C	1.000862	-0.172803	0.151852
C234	C	1.500862	0.327197	0.651852
C235	C	0.999801	-0.260523	0.152565
C236	C	1.499801	0.239477	0.652565
H237	H	1.025056	-0.151971	0.202033
H238	H	1.525056	0.348029	0.702033
H239	H	1.029914	-0.157533	0.101415
H240	H	1.529914	0.342467	0.601415
H241	H	0.948332	-0.149415	0.151641
H242	H	1.448332	0.350585	0.651641
H243	H	1.052332	-0.283912	0.152770
H244	H	1.552332	0.216088	0.652770
H245	H	0.970749	-0.275801	0.203016
H246	H	1.470749	0.224199	0.703016
H247	H	0.819318	0.284397	0.213821
H248	H	1.319318	0.784397	0.713821
