data_functionalizedCrystal
_audit_creation_method	'MofGen! by Chris Wilmer'
_symmetry_space_group_name_H-M	'P1'
_symmetry_Int_Tables_number	1
_symmetry_cell_setting	triclinic
loop_
_symmetry_equiv_pos_as_xyz
  x,y,z
_cell_length_a	11.295483
_cell_length_b	10.654550
_cell_length_c	10.654550
_cell_angle_alpha	95.515097
_cell_angle_beta	85.863996
_cell_angle_gamma	85.851403
loop_
_atom_site_label
_atom_site_type_symbol
_atom_site_fract_x
_atom_site_fract_y
_atom_site_fract_z
O1	O	0.099120	-1.676235	0.168006
O2	O	0.099101	-1.310755	0.184814
O3	O	0.099107	-1.501898	-0.006329
O4	O	0.099115	-1.485092	0.359149
O5	O	-0.098945	-1.485109	0.010434
O6	O	-0.098950	-1.293966	0.201577
O7	O	-0.098931	-1.659447	0.184769
Cu8	Cu	-0.117024	-1.475174	0.194703
Cu9	Cu	0.117194	-1.495028	0.174880
O10	O	-0.098937	-1.468304	0.375912
C11	C	0.000073	-1.255563	0.191962
C12	C	0.000065	-1.116119	0.188270
N13	N	-0.281761	-1.461218	0.208645
C14	C	0.000082	-1.492270	-0.044746
C15	C	0.000086	-1.488578	-0.184189
C16	C	-0.531046	-1.609452	0.060495
C17	C	-0.655710	-1.598915	0.071040
C18	C	-0.655755	-1.429601	0.240274
C19	C	-0.531091	-1.440138	0.229729
C20	C	-0.468741	-1.530068	0.139838
C21	C	-0.344075	-1.540611	0.129299
C22	C	-0.344122	-1.371291	0.298526
C23	C	-0.468786	-1.360754	0.309071
N24	N	0.281931	-1.508993	0.160928
C25	C	0.000100	-1.714639	0.177621
C26	C	0.000115	-1.854084	0.181312
C27	C	0.000085	-1.036635	0.300810
C28	C	0.000106	-0.905616	0.297332
C29	C	0.000092	-0.933578	0.068764
C30	C	0.000063	-1.064594	0.072244
C31	C	0.000098	-1.020490	0.432772
C32	C	0.000119	-0.889471	0.429294
C33	C	0.000089	-1.601120	-0.263675
C34	C	0.000097	-1.597644	-0.394697
C35	C	0.000095	-1.369074	-0.366733
C36	C	0.000096	-1.372552	-0.235715
C37	C	0.000084	-1.733082	-0.279820
C38	C	0.000093	-1.729607	-0.410842
C39	C	0.000090	-1.477932	0.414328
C40	C	0.000094	-1.481624	0.553771
H41	H	-0.480280	-1.682685	-0.012690
N42	N	-0.113175	-1.779158	-0.223034
H43	H	-0.109039	-1.780036	-0.128741
H44	H	-0.183389	-1.720748	-0.240022
H45	H	-0.082789	-1.042795	0.491398
N46	N	0.000109	-1.251173	-0.149978
H47	H	0.073530	-1.206841	-0.172885
H48	H	-0.073354	-1.194466	-0.160487
N49	N	-0.536048	-1.263763	0.406014
H50	H	-0.587759	-1.307870	0.466436
H51	H	-0.477586	-1.215098	0.454589
H52	H	-0.085384	-0.836552	0.476411
H53	H	0.000104	-1.274610	-0.408702
H54	H	0.082966	-1.791724	-0.257477
H55	H	0.085608	-1.776737	-0.463722
H56	H	-0.293310	-1.613839	0.056109
H57	H	-0.293379	-1.306655	0.363136
N58	N	-0.722913	-1.684546	-0.014525
H59	H	-0.664494	-1.743115	-0.073064
H60	H	-0.774614	-1.736110	0.038457
H61	H	-0.706537	-1.356374	0.313453
H62	H	-0.082787	-1.772303	-0.445587
H63	H	0.000029	-1.129305	-0.019396
H64	H	0.000108	-0.891611	-0.025703
H65	H	0.085606	-1.063394	0.467554
H66	H	0.083011	-0.854765	0.472000
