data_functionalizedCrystal
_audit_creation_method	'MofGen! by Chris Wilmer'
_symmetry_space_group_name_H-M	'P1'
_symmetry_Int_Tables_number	1
_symmetry_cell_setting	triclinic
loop_
_symmetry_equiv_pos_as_xyz
  x,y,z
_cell_length_a	10.723024
_cell_length_b	15.944551
_cell_length_c	9.198806
_cell_angle_alpha	89.995864
_cell_angle_beta	89.996352
_cell_angle_gamma	83.983304
loop_
_atom_site_label
_atom_site_type_symbol
_atom_site_fract_x
_atom_site_fract_y
_atom_site_fract_z
O1	O	1.655699	0.117808	-0.120886
O2	O	2.155699	0.617808	0.379114
O3	O	1.292405	0.129085	-0.120892
O4	O	1.792405	0.629085	0.379108
O5	O	1.483973	0.001228	-0.120876
O6	O	1.983973	0.501228	0.379124
O7	O	1.464131	0.245664	-0.120902
O8	O	1.964131	0.745664	0.379098
O9	O	1.483958	0.001228	0.120909
O10	O	1.983958	0.501228	0.620909
O11	O	1.292389	0.129084	0.120893
O12	O	1.792389	0.629084	0.620893
O13	O	1.655684	0.117808	0.120899
O14	O	2.155684	0.617808	0.620899
Cu15	Cu	1.474035	0.123446	0.142973
Cu16	Cu	1.974035	0.623446	0.642973
Cu17	Cu	1.474053	0.123446	-0.142966
Cu18	Cu	1.974053	0.623446	0.357034
O19	O	1.464116	0.245664	0.120883
O20	O	1.964116	0.745664	0.620883
C21	C	1.245908	0.128264	0.000000
C22	C	1.745908	0.628264	0.500000
C23	C	1.107384	0.125809	-0.000001
C24	C	1.607384	0.625809	0.499999
C25	C	1.483141	-0.030070	0.000017
C26	C	1.983141	0.469930	0.500017
C27	C	1.480672	-0.123331	0.000018
C28	C	1.980672	0.376669	0.500018
C29	C	1.031498	0.197350	-0.000010
C30	C	1.531498	0.697350	0.499990
C31	C	0.888327	0.194814	-0.000012
C32	C	1.388327	0.694814	0.499988
C33	C	1.356026	-0.338901	-0.000004
C34	C	1.856026	0.161099	0.499996
C35	C	1.413900	-0.399587	0.119211
C36	C	1.913900	0.100413	0.619211
C37	C	1.476205	-0.294082	0.000006
C38	C	1.976205	0.205918	0.500006
C39	C	1.413944	-0.399570	-0.119170
C40	C	1.913944	0.100430	0.380830
C41	C	1.471880	-0.459020	-0.000011
C42	C	1.971880	0.040980	0.499989
C43	C	1.534111	-0.353540	0.119320
C44	C	2.034111	0.146460	0.619320
C45	C	1.534138	-0.353516	-0.119168
C46	C	2.034138	0.146484	0.380832
C47	C	1.592099	-0.414184	0.000077
C48	C	2.092099	0.085816	0.500077
C49	C	1.478692	-0.199066	0.000018
C50	C	1.978692	0.300934	0.500018
C51	C	1.469402	-0.554035	-0.000011
C52	C	1.969402	-0.054035	0.499989
C53	C	1.702181	0.118629	0.000003
C54	C	2.202181	0.618629	0.500003
C55	C	1.840704	0.121084	-0.000005
C56	C	2.340704	0.621084	0.499995
C57	C	1.464947	0.276963	-0.000013
C58	C	1.964947	0.776963	0.499987
C59	C	1.467417	0.370223	-0.000024
C60	C	1.967417	0.870223	0.499976
N61	N	1.474032	0.123445	0.344087
N62	N	1.974032	0.623445	0.844087
N63	N	1.474067	0.123441	-0.344080
N64	N	1.974067	0.623441	0.155920
C65	C	1.554469	0.069525	0.416290
C66	C	2.054469	0.569525	0.916290
C67	C	1.554488	0.069522	0.583703
C68	C	2.054488	0.569522	1.083703
H69	H	1.072523	0.260477	-0.000009
H70	H	1.572523	0.760477	0.499991
C71	C	1.051983	0.040524	0.000008
C72	C	1.551983	0.540524	0.500008
H73	H	1.118159	-0.004031	0.000024
H74	H	1.618159	0.495969	0.500024
H75	H	1.001815	0.036491	-0.084305
H76	H	1.501815	0.536491	0.415695
H77	H	1.001812	0.036493	0.084337
H78	H	1.501812	0.536493	0.584337
C79	C	1.221277	-0.294670	0.000150
C80	C	1.721277	0.205330	0.500150
H81	H	1.178773	-0.310335	0.084962
H82	H	1.678773	0.189665	0.584962
H83	H	1.178160	-0.311088	-0.083678
H84	H	1.678160	0.188912	0.416322
H85	H	1.223773	-0.235289	-0.000705
H86	H	1.723773	0.264711	0.499295
H87	H	0.905903	0.059835	-0.000006
H88	H	1.405903	0.559835	0.499994
H89	H	1.623316	0.023361	0.354170
H90	H	2.123316	0.523361	0.854170
H91	H	1.584893	-0.333259	0.220218
H92	H	2.084893	0.166741	0.720218
C93	C	0.800248	0.277555	-0.000021
C94	C	1.300248	0.777555	0.499979
H95	H	0.715576	0.264996	-0.000011
H96	H	1.215576	0.764996	0.499989
H97	H	0.815413	0.309358	-0.084337
H98	H	1.315413	0.809358	0.415663
H99	H	0.815401	0.309353	0.084305
H100	H	1.315401	0.809353	0.584305
H101	H	1.363063	-0.419986	0.219997
H102	H	1.863063	0.080014	0.719997
H103	H	1.623358	0.023362	0.645795
H104	H	2.123358	0.523362	1.145795
C105	C	1.381029	0.185811	0.572065
C106	C	1.881029	0.685811	1.072065
H107	H	1.330582	0.219642	0.639091
H108	H	1.830582	0.719642	1.139091
H109	H	1.328988	0.155353	0.512697
H110	H	1.828988	0.655353	1.012697
H111	H	1.426126	0.220930	0.512680
H112	H	1.926126	0.720930	1.012680
C113	C	1.726966	-0.458216	0.000168
C114	C	2.226966	0.041784	0.500168
H115	H	1.769444	-0.442461	0.084928
H116	H	2.269444	0.057539	0.584928
H117	H	1.769978	-0.441746	-0.083712
H118	H	2.269978	0.058254	0.416288
H119	H	1.724674	-0.517615	-0.000623
H120	H	2.224674	-0.017615	0.499377
C121	C	1.602751	-0.325919	-0.255323
C122	C	2.102751	0.174081	0.244677
H123	H	1.559935	-0.341507	-0.339949
H124	H	2.059935	0.158493	0.160051
H125	H	1.686143	-0.352737	-0.256180
H126	H	2.186143	0.147263	0.243820
H127	H	1.604475	-0.266476	-0.253855
H128	H	2.104475	0.233524	0.246145
C129	C	1.345266	-0.427096	-0.255324
C130	C	1.845266	0.072904	0.244676
H131	H	1.261413	-0.401059	-0.255169
H132	H	1.761413	0.098941	0.244831
H133	H	1.344853	-0.486642	-0.254826
H134	H	1.844853	0.013358	0.245174
H135	H	1.387150	-0.410547	-0.339978
H136	H	1.887150	0.089453	0.160022
H137	H	1.405176	0.169603	0.406209
H138	H	1.905176	0.669603	0.906209
