data_functionalizedCrystal
_audit_creation_method	'MofGen! by Chris Wilmer'
_symmetry_space_group_name_H-M	'P1'
_symmetry_Int_Tables_number	1
_symmetry_cell_setting	triclinic
loop_
_symmetry_equiv_pos_as_xyz
  x,y,z
_cell_length_a	19.377372
_cell_length_b	12.477989
_cell_length_c	12.477989
_cell_angle_alpha	60.281621
_cell_angle_beta	91.323637
_cell_angle_gamma	68.343400
loop_
_atom_site_label
_atom_site_type_symbol
_atom_site_fract_x
_atom_site_fract_y
_atom_site_fract_z
Zr1	Zr	0.518507	1.490466	-0.199700
O2	O	0.410446	1.673610	-0.338848
O3	O	0.556743	1.283028	-0.169171
O4	O	0.539781	1.526818	-0.387348
O5	O	0.434975	1.409617	0.065226
O6	O	0.635990	1.583129	-0.411812
O7	O	0.427408	1.429820	-0.120670
O8	O	0.666331	1.147034	-0.021532
O9	O	0.404634	1.845712	-0.325054
O10	O	0.638676	1.419373	-0.159756
O11	O	0.572524	1.362271	-0.002767
O12	O	0.552554	1.649302	-0.259643
O13	O	0.486401	1.592201	-0.102653
Zr14	Zr	0.684018	1.548054	0.057766
Zr15	Zr	0.671949	1.580275	-0.238717
Zr16	Zr	0.530575	1.458245	0.096783
Zr17	Zr	0.509237	1.764950	-0.177700
Zr18	Zr	0.693288	1.273570	0.035766
O19	O	0.645782	1.755492	0.027237
O20	O	0.628622	1.801306	-0.394325
O21	O	0.427606	1.627795	0.082713
O22	O	0.792078	1.364910	0.196914
O23	O	0.774918	1.410725	-0.224647
O24	O	0.573902	1.237214	0.252391
O25	O	0.767549	1.628903	-0.207160
O26	O	0.662743	1.511702	0.245414
O27	O	0.566534	1.455391	0.269878
O28	O	0.775116	1.608700	-0.021264
O29	O	0.526600	1.917098	-0.356067
O30	O	0.675924	1.121422	0.214133
O31	O	0.797890	1.192808	0.183120
O32	O	0.788297	1.218420	-0.052545
O33	O	0.414227	1.820100	-0.089389
O34	O	0.536193	1.891487	-0.120402
O35	O	0.649970	1.389218	0.117709
O36	O	0.716123	1.446319	-0.039281
O37	O	0.630001	1.676249	-0.139167
O38	O	0.563848	1.619148	0.017822
C39	C	0.612858	1.175923	-0.098486
C40	C	0.616793	1.059397	-0.107825
C41	C	0.409329	1.406923	-0.022163
C42	C	0.344189	1.368797	-0.005599
C43	C	-0.094820	1.843496	-0.211825
C44	C	-0.156017	1.807638	-0.196246
C45	C	-0.066102	1.567610	-0.091972
C46	C	-0.004896	1.603446	-0.107537
C47	C	-0.019261	1.741391	-0.167466
C48	C	0.070663	1.501342	-0.063178
C49	C	0.131863	1.537177	-0.078748
C50	C	0.117506	1.675116	-0.138677
C51	C	0.041940	1.777226	-0.183036
C52	C	0.085026	1.363398	-0.003257
C53	C	0.160585	1.261294	0.041102
C54	C	0.221787	1.297127	0.025541
C55	C	0.207430	1.435066	-0.034389
C56	C	0.297353	1.195016	0.069900
C57	C	0.358554	1.230851	0.054330
C58	C	0.268630	1.470901	-0.049959
C59	C	0.793195	1.631597	-0.119771
C60	C	0.858335	1.669723	-0.136335
C61	C	0.586166	1.559564	-0.441823
C62	C	0.581043	1.573243	-0.567688
C63	C	0.589667	1.862597	-0.043448
C64	C	0.585731	1.979123	-0.034109
C65	C	0.616358	1.478956	0.299889
C66	C	0.621481	1.465277	0.425754
C67	C	0.804791	1.288260	-0.147290
C68	C	0.873866	1.209861	-0.173193
C69	C	0.627953	1.135619	0.272370
C70	C	0.637012	1.005414	0.388895
C71	C	0.819887	1.247956	0.223566
C72	C	0.894086	1.155878	0.323528
C73	C	0.382638	1.790564	-0.365500
C74	C	0.308439	1.882642	-0.465462
C75	C	0.397734	1.750260	0.005356
C76	C	0.328658	1.828659	0.031259
C77	C	0.574571	1.902901	-0.414304
C78	C	0.565512	2.033106	-0.530829
C79	C	0.865878	1.158979	-0.248257
C80	C	0.930774	1.085329	-0.272621
C81	C	1.003659	1.062555	-0.221912
C82	C	1.011646	1.113446	-0.146845
C83	C	0.946749	1.187103	-0.122490
C84	C	0.963468	1.142447	0.288522
C85	C	1.033191	1.055950	0.382435
C86	C	1.033530	0.982877	0.511352
C87	C	0.964140	0.996315	0.546358
C88	C	0.894419	1.082818	0.452446
C89	C	0.239056	1.896086	-0.430455
C90	C	0.169332	1.982618	-0.524365
C91	C	0.168992	2.055696	-0.653282
C92	C	0.238382	2.042251	-0.688288
C93	C	0.308105	1.955729	-0.594378
C94	C	0.336645	1.879554	0.106312
C95	C	0.271746	1.953237	0.130645
C96	C	0.198861	1.976016	0.079933
C97	C	0.190875	1.925119	0.004871
C98	C	0.255773	1.851445	-0.019469
H99	H	0.256933	1.583225	-0.098718
H100	H	0.542494	1.676146	-0.658370
H101	H	0.131524	1.943678	-0.036414
F102	F	1.107032	1.041662	0.345154
F103	F	0.964513	0.918535	0.683568
H104	H	1.090307	0.912445	0.587809
H105	H	0.278264	1.994666	0.191770
H106	H	1.070997	1.094892	-0.105564
F107	F	0.026653	1.924043	-0.246805
H108	H	0.167341	1.704290	-0.151355
F109	F	0.414209	1.855330	0.160293
H110	H	0.660020	1.362377	-0.483570
H111	H	0.806536	1.177525	-0.289570
F112	F	0.094781	2.147776	-0.753218
F113	F	0.963124	1.220212	0.151325
F114	F	0.922259	1.031174	-0.352511
F115	F	0.547029	1.005816	0.057717
F116	F	0.312630	1.048213	0.133664
H117	H	0.238097	2.101763	-0.793263
H118	H	0.646397	1.038979	-0.178091
F119	F	1.072722	0.984158	-0.247843
F120	F	0.247261	1.797277	-0.099343
F121	F	0.955264	1.241240	-0.042588
H122	H	-0.106517	1.955820	-0.260585
F123	F	0.820580	1.097093	0.489721
F124	F	0.239400	1.818319	-0.293258
H125	H	0.112840	1.993545	-0.495838
F126	F	0.701328	0.872330	0.424841
H127	H	0.146024	2.036008	0.099762
F128	F	0.381944	1.941425	-0.631655
H129	H	-0.054417	1.455295	-0.043182
H130	H	0.035189	1.334228	0.009408
F131	F	0.175864	1.114488	0.104878
F132	F	-0.236437	1.916324	-0.243476
H133	H	0.420079	1.147705	0.090475
F134	F	0.523319	1.141046	0.424927
