data_functionalizedCrystal
_audit_creation_method	'MofGen! by Chris Wilmer'
_symmetry_space_group_name_H-M	'P1'
_symmetry_Int_Tables_number	1
_symmetry_cell_setting	triclinic
loop_
_symmetry_equiv_pos_as_xyz
  x,y,z
_cell_length_a	14.519709
_cell_length_b	14.853567
_cell_length_c	12.996460
_cell_angle_alpha	90.002349
_cell_angle_beta	90.000034
_cell_angle_gamma	96.342463
loop_
_atom_site_label
_atom_site_type_symbol
_atom_site_fract_x
_atom_site_fract_y
_atom_site_fract_z
O1	O	1.223821	-0.118181	-0.085424
O2	O	0.955338	-0.132098	-0.085454
O3	O	1.096751	0.006088	-0.085441
O4	O	1.082408	-0.256366	-0.085437
O5	O	1.096736	0.006095	0.085692
O6	O	0.955323	-0.132090	0.085679
O7	O	1.223806	-0.118173	0.085710
Cu8	Cu	1.089563	-0.125131	0.101321
Cu9	Cu	1.089581	-0.125140	-0.101065
O10	O	1.082393	-0.256359	0.085697
C11	C	0.920971	-0.131446	0.000109
C12	C	0.818591	-0.129502	0.000097
C13	C	1.096094	0.039680	0.000122
C14	C	1.094146	0.139765	0.000113
N15	N	1.089558	-0.125124	0.243668
C16	C	0.443698	-0.122347	0.000143
C17	C	0.548005	-0.124334	0.000130
C18	C	0.631141	-0.125924	0.000119
C19	C	0.735455	-0.127912	0.000108
C20	C	1.258173	-0.118826	0.000145
C21	C	1.360553	-0.120769	0.000150
C22	C	1.083050	-0.289952	0.000131
C23	C	1.084998	-0.390036	0.000133
C24	C	1.001911	0.552334	0.000122
C25	C	1.169913	0.573550	0.000141
C26	C	1.171744	0.479516	0.000135
C27	C	1.088658	0.421886	0.000125
C28	C	1.003740	0.458291	0.000120
C29	C	1.256661	0.443104	0.000151
C30	C	1.258495	0.349064	0.000146
C31	C	1.175408	0.291433	0.000128
C32	C	1.090486	0.327843	0.000122
C33	C	1.007400	0.270213	0.000111
C34	C	0.922478	0.306621	0.000098
C35	C	0.920653	0.400660	0.000101
C36	C	1.177233	0.197394	0.000124
C37	C	1.009229	0.176170	0.000108
N38	N	1.089594	-0.125140	-0.243412
C39	C	1.089580	-0.125141	0.663482
C40	C	1.089571	-0.125139	0.546677
C41	C	1.089569	-0.125133	0.453579
C42	C	1.089559	-0.125130	0.336766
H43	H	0.941568	0.129253	0.000095
H44	H	0.932770	0.581983	0.000107
O45	O	1.341064	0.313850	0.000107
C46	C	1.507508	0.344826	0.000185
C47	C	1.414064	0.384827	0.000210
H48	H	1.566553	0.402191	0.000290
H49	H	1.512633	0.301367	-0.071455
H50	H	1.512509	0.301296	0.071783
H51	H	1.409000	0.428399	-0.071340
H52	H	1.408979	0.428234	0.071897
H53	H	1.237558	0.620477	0.000158
H54	H	0.854829	0.259687	0.000096
O55	O	1.337279	0.499211	0.000124
C56	C	1.408910	0.653490	0.000206
C57	C	1.317538	0.590047	0.000210
H58	H	1.392981	0.726944	0.000297
H59	H	1.450720	0.640304	-0.071421
H60	H	1.450682	0.640181	0.071818
H61	H	1.275692	0.603318	-0.071353
H62	H	1.275799	0.603246	0.071884
O63	O	1.259737	0.162068	-0.000047
C64	C	1.403921	0.151475	-0.088657
C65	C	1.310504	0.191525	-0.088599
H66	H	1.445001	0.175291	-0.160232
H67	H	1.391010	0.074361	-0.088733
H68	H	1.444939	0.175176	-0.016997
H69	H	1.269439	0.167894	-0.160247
H70	H	1.323481	0.268635	-0.088470
O71	O	0.838246	0.436176	0.000144
C72	C	0.760980	0.571648	0.000096
C73	C	0.854366	0.531542	0.000066
H74	H	0.773980	0.648756	0.000011
H75	H	0.719898	0.547990	0.071728
H76	H	0.719918	0.547879	-0.071511
H77	H	0.895503	0.555293	0.071624
H78	H	0.895377	0.555196	-0.071613
