data_functionalizedCrystal
_audit_creation_method	'MofGen! by Chris Wilmer'
_symmetry_space_group_name_H-M	'P1'
_symmetry_Int_Tables_number	1
_symmetry_cell_setting	triclinic
loop_
_symmetry_equiv_pos_as_xyz
  x,y,z
_cell_length_a	15.995350
_cell_length_b	19.288865
_cell_length_c	15.072220
_cell_angle_alpha	90.014629
_cell_angle_beta	89.999876
_cell_angle_gamma	96.685689
loop_
_atom_site_label
_atom_site_type_symbol
_atom_site_fract_x
_atom_site_fract_y
_atom_site_fract_z
O1	O	1.110646	-0.089535	-0.073718
O2	O	1.610646	0.410465	0.426282
O3	O	0.866829	-0.100591	-0.073737
O4	O	1.366829	0.399409	0.426263
O5	O	0.995783	0.006049	-0.073709
O6	O	1.495783	0.506049	0.426291
O7	O	0.981693	-0.196175	-0.073746
O8	O	1.481693	0.303825	0.426254
O9	O	0.995775	0.006062	0.073856
O10	O	1.495775	0.506062	0.573856
O11	O	0.866821	-0.100578	0.073828
O12	O	1.366821	0.399422	0.573828
O13	O	1.110638	-0.089522	0.073847
O14	O	1.610638	0.410478	0.573847
Zn15	Zn	0.988729	-0.095048	0.097267
Zn16	Zn	1.488729	0.404952	0.597267
Zn17	Zn	0.988739	-0.095065	-0.097157
Zn18	Zn	1.488739	0.404935	0.402843
O19	O	0.981685	-0.196162	0.073819
O20	O	1.481685	0.303838	0.573819
C21	C	0.835632	-0.100128	0.000043
C22	C	1.335632	0.399872	0.500043
C23	C	0.742687	-0.098757	0.000036
C24	C	1.242687	0.401243	0.500036
N25	N	0.988728	-0.095036	0.229955
N26	N	1.488728	0.404964	0.729955
C27	C	0.995326	0.031933	0.000076
C28	C	1.495326	0.531933	0.500076
C29	C	0.993965	0.109040	0.000083
C30	C	1.493965	0.609040	0.500083
C31	C	0.404958	-0.093836	0.000056
C32	C	0.904958	0.406164	0.500056
C33	C	0.452679	-0.017889	0.000398
C34	C	0.952679	0.482111	0.500398
C35	C	0.549364	-0.019260	0.000059
C36	C	1.049364	0.480740	0.500059
C37	C	0.572509	-0.096277	0.000047
C38	C	1.072509	0.403723	0.500047
C39	C	0.531286	-0.133744	-0.084224
C40	C	1.031286	0.366256	0.415776
C41	C	0.434657	-0.131837	-0.084288
C42	C	0.934657	0.368163	0.415712
C43	C	0.434303	-0.133391	0.083521
C44	C	0.934303	0.366609	0.583521
C45	C	0.531249	-0.133373	0.084629
C46	C	1.031249	0.366627	0.584629
C47	C	0.667202	-0.097661	0.000038
C48	C	1.167202	0.402339	0.500038
C49	C	0.310266	-0.092455	0.000058
C50	C	0.810266	0.407545	0.500058
C51	C	1.141835	-0.089986	0.000065
C52	C	1.641835	0.410014	0.500065
C53	C	1.234781	-0.091356	0.000066
C54	C	1.734781	0.408644	0.500066
C55	C	0.982142	-0.222047	0.000032
C56	C	1.482142	0.277953	0.500032
C57	C	0.983503	-0.299154	0.000019
C58	C	1.483503	0.200846	0.500019
C59	C	1.069629	0.153540	0.000094
C60	C	1.569629	0.653540	0.500094
C61	C	1.068350	0.225990	0.000080
C62	C	1.568350	0.725990	0.500080
C63	C	0.991403	0.253937	0.000073
C64	C	1.491403	0.753937	0.500073
C65	C	0.915729	0.209428	0.000058
C66	C	1.415729	0.709428	0.500058
C67	C	0.917010	0.136979	0.000063
C68	C	1.417010	0.636979	0.500063
C69	C	0.930911	0.362386	0.051757
C70	C	1.430911	0.862386	0.551757
C71	C	0.929633	0.434834	0.051757
C72	C	1.429633	0.934834	0.551757
C73	C	0.987450	0.477393	0.000053
C74	C	1.487450	0.977393	0.500053
C75	C	1.046558	0.447497	-0.051640
C76	C	1.546558	0.947497	0.448360
C77	C	1.047839	0.375048	-0.051635
C78	C	1.547839	0.875048	0.448365
C79	C	0.990006	0.332495	0.000067
C80	C	1.490006	0.832495	0.500067
C81	C	1.061733	0.600453	0.000047
C82	C	1.561733	1.100453	0.500047
C83	C	1.060451	0.672904	0.000027
C84	C	1.560451	1.172904	0.500027
C85	C	0.907827	0.656340	0.000014
C86	C	1.407827	1.156340	0.500014
C87	C	0.909111	0.583890	0.000024
C88	C	1.409111	1.083890	0.500024
C89	C	0.986066	0.555951	0.000045
C90	C	1.486066	1.055951	0.500045
C91	C	0.988742	-0.095060	0.589157
C92	C	1.488742	0.404940	1.089157
C93	C	1.057965	-0.038189	0.551537
C94	C	1.557965	0.461811	1.051537
C95	C	1.057785	-0.037979	0.448712
C96	C	1.557785	0.462021	0.948712
C97	C	0.988736	-0.095048	0.410953
C98	C	1.488736	0.404952	0.910953
C99	C	0.901438	-0.079220	0.448292
C100	C	1.401438	0.420780	0.948292
C101	C	0.901849	-0.078818	0.551150
C102	C	1.401849	0.421182	1.051150
C103	C	1.006028	-0.167926	0.551222
C104	C	1.506028	0.332074	1.051222
C105	C	1.008013	-0.167438	0.448358
C106	C	1.508013	0.332562	0.948358
C107	C	0.988726	-0.095043	0.310240
C108	C	1.488726	0.404957	0.810240
C109	C	0.988745	-0.095063	0.689870
C110	C	1.488745	0.404937	1.189870
N111	N	0.988750	-0.095071	0.770154
N112	N	1.488750	0.404929	1.270154
H113	H	0.577900	0.010191	0.060468
H114	H	1.077900	0.510191	0.560468
N115	N	0.410538	-0.095659	-0.167713
N116	N	0.910538	0.404341	0.332287
H117	H	0.462652	-0.081097	-0.204101
H118	H	0.962652	0.418903	0.295899
H119	H	0.382748	-0.053026	-0.151300
H120	H	0.882748	0.446974	0.348700
H121	H	0.885778	-0.026684	0.422548
H122	H	1.385778	0.473316	0.922548
H123	H	0.881500	0.459169	0.093844
H124	H	1.381500	0.959169	0.593844
N125	N	0.832732	0.239561	0.000052
N126	N	1.332732	0.739561	0.500052
H127	H	0.828801	0.269240	-0.054651
H128	H	1.328801	0.769240	0.445349
H129	H	0.828843	0.269226	0.054790
H130	H	1.328843	0.769226	0.554790
N131	N	1.088526	-0.188083	0.585572
N132	N	1.588526	0.311917	1.085572
H133	H	1.115531	-0.150180	0.626078
H134	H	1.615531	0.349820	1.126078
H135	H	1.127273	-0.194232	0.533976
H136	H	1.627273	0.305768	1.033976
H137	H	1.132291	0.130797	0.000108
H138	H	1.632291	0.630797	0.500108
H139	H	0.886571	-0.025677	0.575158
H140	H	1.386571	0.474323	1.075158
H141	H	0.960840	-0.211740	0.422652
H142	H	1.460840	0.288260	0.922652
N143	N	0.868555	0.316478	0.107525
N144	N	1.368555	0.816478	0.607525
H145	H	0.809418	0.322683	0.088225
H146	H	1.309418	0.822683	0.588225
H147	H	0.876204	0.329968	0.172018
H148	H	1.376204	0.829968	0.672018
N149	N	0.939183	-0.224007	0.583443
N150	N	1.439183	0.275993	1.083443
H151	H	0.882091	-0.213181	0.562661
H152	H	1.382091	0.286819	1.062661
H153	H	0.940114	-0.225693	0.650404
H154	H	1.440114	0.274307	1.150404
N155	N	1.111584	0.342804	-0.107387
N156	N	1.611584	0.842804	0.392613
H157	H	1.103567	0.354547	-0.171900
H158	H	1.603567	0.854547	0.328100
H159	H	1.103586	0.290460	-0.099461
H160	H	1.603586	0.790460	0.400539
N161	N	1.043187	0.033649	0.416143
N162	N	1.543187	0.533649	0.916143
H163	H	0.987170	0.045553	0.438806
H164	H	1.487170	0.545553	0.938806
H165	H	1.043053	0.034041	0.349138
H166	H	1.543053	0.534041	0.849138
N167	N	0.831594	-0.131599	0.584124
N168	N	1.331594	0.368401	1.084124
H169	H	0.800492	-0.155022	0.531840
H170	H	1.300492	0.344978	1.031840
H171	H	0.791361	-0.107187	0.621286
H172	H	1.291361	0.392813	1.121286
H173	H	0.546402	-0.189536	0.089709
H174	H	1.046402	0.310464	0.589709
H175	H	0.402330	-0.189386	0.084082
H176	H	0.902330	0.310614	0.584082
H177	H	0.402198	-0.187596	-0.088121
H178	H	0.902198	0.312404	0.411879
H179	H	0.559761	-0.107732	-0.146930
H180	H	1.059761	0.392268	0.353070
H181	H	0.413858	-0.108557	0.147396
H182	H	0.913858	0.391443	0.647396
N183	N	0.428299	0.022332	0.080453
N184	N	0.928299	0.522332	0.580453
H185	H	0.386080	-0.008283	0.117275
H186	H	0.886080	0.491717	0.617275
H187	H	0.402521	0.065034	0.060288
H188	H	0.902521	0.565034	0.560288
N189	N	1.093076	-0.183354	0.416039
N190	N	1.593076	0.316646	0.916039
H191	H	1.119023	-0.143843	0.377327
H192	H	1.619023	0.356157	0.877327
H193	H	1.086173	-0.228097	0.380596
H194	H	1.586173	0.271903	0.880596
N195	N	1.149962	0.273999	0.000089
N196	N	1.649962	0.773999	0.500089
H197	H	1.198905	0.245306	0.000101
H198	H	1.698905	0.745306	0.500101
H199	H	1.152743	0.304430	0.054793
H200	H	1.652743	0.804430	0.554793
N201	N	1.108926	0.493389	-0.107410
N202	N	1.608926	0.993389	0.392590
H203	H	1.099146	0.543821	-0.099575
H204	H	1.599146	1.043821	0.400425
H205	H	1.101326	0.479857	-0.171894
H206	H	1.601326	0.979857	0.328106
H207	H	0.558665	-0.106022	0.146971
H208	H	1.058665	0.393978	0.646971
N209	N	0.549719	-0.208692	-0.088404
N210	N	1.049719	0.291308	0.411596
H211	H	0.585054	-0.219105	-0.035584
H212	H	1.085054	0.280895	0.464416
H213	H	0.581340	-0.216395	-0.144883
H214	H	1.081340	0.283605	0.355117
H215	H	1.122686	-0.047405	0.423466
H216	H	1.622686	0.452595	0.923466
N217	N	1.144225	-0.050469	0.584297
N218	N	1.644225	0.449531	1.084297
H219	H	1.169687	-0.008429	0.619013
H220	H	1.669687	0.491571	1.119013
H221	H	1.181447	-0.058208	0.531944
H222	H	1.681447	0.441792	1.031944
H223	H	0.848697	-0.119538	0.423834
H224	H	1.348697	0.380462	0.923834
H225	H	0.433202	0.012323	-0.059691
H226	H	0.933202	0.512323	0.440309
H227	H	0.577337	0.010379	-0.060444
H228	H	1.077337	0.510379	0.439556
H229	H	1.124394	0.577704	0.000059
H230	H	1.624394	1.077704	0.500059
H231	H	1.122068	0.709136	0.000031
H232	H	1.622068	1.209136	0.500031
H233	H	1.047111	0.015579	0.577404
H234	H	1.547111	0.515579	1.077404
N235	N	0.824838	0.686482	0.000013
N236	N	1.324838	1.186482	0.500013
H237	H	0.791699	0.670267	0.054715
H238	H	1.291699	1.170267	0.554715
H239	H	0.791765	0.670235	-0.054726
H240	H	1.291765	1.170235	0.445274
H241	H	0.847497	0.547657	0.000021
H242	H	1.347497	1.047657	0.500021
H243	H	0.855393	0.100746	0.000055
H244	H	1.355393	0.600746	0.500055
