data_functionalizedCrystal
_audit_creation_method	'MofGen! by Chris Wilmer'
_symmetry_space_group_name_H-M	'P1'
_symmetry_Int_Tables_number	1
_symmetry_cell_setting	triclinic
loop_
_symmetry_equiv_pos_as_xyz
  x,y,z
_cell_length_a	6.817900
_cell_length_b	11.100257
_cell_length_c	10.992668
_cell_angle_alpha	91.932116
_cell_angle_beta	108.769342
_cell_angle_gamma	108.570032
loop_
_atom_site_label
_atom_site_type_symbol
_atom_site_fract_x
_atom_site_fract_y
_atom_site_fract_z
V1	V	-4.112112	-0.396278	-0.178009
O2	O	-4.070248	-0.388740	0.008301
O3	O	-4.089737	-0.393562	-0.352719
O4	O	-4.088759	-0.569110	-0.175382
O5	O	-4.071233	-0.211976	-0.170264
V6	V	-4.589123	-0.374234	-0.155711
O7	O	-4.387657	-0.444631	-0.226922
O8	O	-4.763775	-0.325881	-0.106799
O9	O	-4.388291	-0.376950	0.018998
O10	O	-4.748384	-0.381772	-0.342022
O11	O	-4.747398	-0.558536	-0.163457
O12	O	-4.389270	-0.201402	-0.158339
C13	C	-3.940259	-0.387309	-0.395306
C14	C	-4.003418	-0.386241	-0.538135
C15	C	-4.249859	-0.393491	-0.600448
C16	C	-4.315366	-0.391877	-0.748932
C17	C	-3.919334	-0.259166	-0.718427
C18	C	-3.855062	-0.260247	-0.569859
C19	C	-3.977285	-0.502963	-0.608038
C20	C	-4.047946	-0.503572	-0.757053
C21	C	-3.939009	-0.611237	-0.169094
C22	C	-4.001370	-0.752529	-0.168102
C23	C	-3.997558	-0.981118	0.069726
C24	C	-3.907238	-0.896328	0.186778
C25	C	-3.848293	-0.763605	0.185541
C26	C	-3.879678	-0.715671	0.067239
C27	C	-3.969997	-0.800461	-0.049813
C28	C	-4.028931	-0.933185	-0.048563
C29	C	-4.091689	-0.837319	-0.285154
C30	C	-4.150622	-0.970042	-0.283919
C31	C	-4.123074	-0.789385	-0.403456
C32	C	-4.213380	-0.874175	-0.520510
C33	C	-4.272325	-1.006905	-0.519267
C34	C	-4.240941	-1.054832	-0.400970
C35	C	-4.201112	-0.383199	0.061579
C36	C	-4.117192	-0.384276	0.204406
C37	C	-4.202361	-0.159268	-0.164631
C38	C	-4.119237	-0.017976	-0.165617
H39	H	-3.798511	-0.498762	-0.567209
H40	H	-3.906037	-0.505413	-0.789600
H41	H	-3.831701	-0.607600	0.066241
H42	H	-3.774759	-0.694568	0.280854
H43	H	-3.881698	-0.935371	0.283097
H44	H	-4.274710	-0.309616	-0.552392
H45	H	-4.045522	-1.089186	0.070747
H46	H	-4.238937	-0.835136	-0.616822
H47	H	-4.191094	-0.596125	-0.809446
H48	H	-4.463705	-0.481818	-0.802317
N49	N	-3.976560	-0.148043	-0.750451
N50	N	-3.865515	-0.065443	-0.799721
H51	H	-3.905936	0.013037	-0.822335
H52	H	-4.366961	-0.484040	-0.581661
N53	N	-4.386956	-0.285207	-0.779976
N54	N	-4.388620	-0.211715	-0.691913
H55	H	-4.439173	-0.136371	-0.713834
N56	N	-3.730947	-0.246482	-0.754608
N57	N	-3.651953	-0.150243	-0.802504
H58	H	-3.518910	-0.141285	-0.828066
H59	H	-3.870542	-0.171883	-0.523526
N60	N	-3.627005	-0.247009	-0.516404
N61	N	-3.515773	-0.236993	-0.588842
H62	H	-3.354704	-0.227629	-0.551094
H63	H	-4.080115	-0.597983	-0.587726
H64	H	-4.075086	-0.681314	-0.404455
N65	N	-4.301107	-1.190399	-0.399675
N66	N	-4.273065	-1.233174	-0.294045
H67	H	-4.315557	-1.328919	-0.293124
H68	H	-4.345873	-1.075936	-0.614586
