data_functionalizedCrystal
_audit_creation_method	'MofGen! by Chris Wilmer'
_symmetry_space_group_name_H-M	'P1'
_symmetry_Int_Tables_number	1
_symmetry_cell_setting	triclinic
loop_
_symmetry_equiv_pos_as_xyz
  x,y,z
_cell_length_a	19.076808
_cell_length_b	29.839134
_cell_length_c	19.078702
_cell_angle_alpha	92.213352
_cell_angle_beta	89.826046
_cell_angle_gamma	92.304013
loop_
_atom_site_label
_atom_site_type_symbol
_atom_site_fract_x
_atom_site_fract_y
_atom_site_fract_z
Zn1	Zn	-0.295726	0.669602	-0.385987
Zn2	Zn	0.204274	1.169602	0.114013
Zn3	Zn	-0.408638	0.669695	-0.263773
Zn4	Zn	0.091362	1.169695	0.236227
Zn5	Zn	-0.291100	0.597521	-0.268513
Zn6	Zn	0.208900	1.097521	0.231487
Zn7	Zn	-0.413166	0.591561	-0.381225
Zn8	Zn	0.086834	1.091561	0.118775
O9	O	-0.352157	0.632095	-0.324875
O10	O	0.147843	1.132095	0.175125
O11	O	-0.310745	0.732480	-0.369784
O12	O	0.189255	1.232480	0.130216
O13	O	-0.389216	0.662654	-0.166084
O14	O	0.110784	1.162654	0.333916
O15	O	-0.193375	0.609538	-0.288072
O16	O	0.306625	1.109538	0.211928
O17	O	-0.393702	0.732548	-0.279994
O18	O	0.106298	1.232548	0.220006
O19	O	-0.196773	0.662496	-0.374380
O20	O	0.303227	1.162496	0.125620
O21	O	-0.302861	0.609628	-0.169567
O22	O	0.197139	1.109628	0.330433
O23	O	-0.307251	0.533864	-0.283455
O24	O	0.192749	1.033864	0.216545
O25	O	-0.401418	0.599380	-0.480175
O26	O	0.098582	1.099380	0.019825
O27	O	-0.396932	0.529485	-0.366265
O28	O	0.103068	1.029485	0.133735
O29	O	-0.315135	0.656717	-0.483673
O30	O	0.184865	1.156717	0.016327
O31	O	-0.507578	0.656875	-0.275377
O32	O	-0.007578	1.156875	0.224623
O33	O	-0.510904	0.599470	-0.361669
O34	O	-0.010904	1.099470	0.138331
C35	C	-0.352081	0.515374	-0.324858
C36	C	0.147919	1.015374	0.175142
C37	C	-0.352066	0.465440	-0.324867
C38	C	0.147934	0.965440	0.175133
C39	C	-0.309059	0.108806	-0.371713
C40	C	0.190941	0.608806	0.128287
C41	C	-0.309002	0.296481	-0.371699
C42	C	0.190998	0.796481	0.128301
O43	O	-0.272346	0.320708	-0.411529
O44	O	0.227654	0.820708	0.088471
N45	N	-0.352113	0.319993	-0.324882
N46	N	0.147887	0.819993	0.175118
C47	C	-0.395245	0.296584	-0.278068
C48	C	0.104755	0.796584	0.221932
O49	O	-0.431917	0.320889	-0.238252
O50	O	0.068083	0.820889	0.261748
C51	C	-0.395305	0.108910	-0.278086
C52	C	0.104695	0.608910	0.221914
C53	C	-0.352186	0.085400	-0.324901
C54	C	0.147814	0.585400	0.175099
C55	C	-0.265944	0.085297	-0.418525
C56	C	0.234056	0.585297	0.081475
C57	C	-0.265956	0.038381	-0.418525
C58	C	0.234044	0.538381	0.081475
C59	C	-0.309083	0.014975	-0.371714
C60	C	0.190917	0.514975	0.128286
C61	C	-0.352198	0.038484	-0.324902
C62	C	0.147802	0.538484	0.175098
C63	C	-0.438440	0.085501	-0.231276
C64	C	0.061560	0.585501	0.268724
C65	C	-0.438453	0.038579	-0.231286
C66	C	0.061547	0.538579	0.268714
C67	C	-0.395334	0.015070	-0.278101
C68	C	0.104666	0.515070	0.221899
C69	C	-0.395337	-0.031837	-0.278090
C70	C	0.104663	0.468163	0.221910
N71	N	-0.352226	-0.055350	-0.324907
N72	N	0.147774	0.444650	0.175093
C73	C	-0.309099	-0.031944	-0.371719
C74	C	0.190901	0.468056	0.128281
C75	C	-0.395209	0.395116	-0.278061
C76	C	0.104791	0.895116	0.221939
C77	C	-0.395193	0.442034	-0.278055
C78	C	0.104807	0.942034	0.221945
C79	C	-0.308951	0.441928	-0.371687
C80	C	0.191049	0.941928	0.128313
C81	C	-0.308964	0.395009	-0.371689
C82	C	0.191036	0.895009	0.128311
C83	C	-0.352098	0.371603	-0.324878
C84	C	0.147902	0.871603	0.175122
C85	C	-0.309127	-0.130470	-0.371716
C86	C	0.190873	0.369530	0.128284
C87	C	-0.309140	-0.177390	-0.371710
C88	C	0.190860	0.322610	0.128290
C89	C	-0.395385	-0.177280	-0.278081
C90	C	0.104615	0.322720	0.221919
C91	C	-0.395369	-0.130364	-0.278084
C92	C	0.104631	0.369636	0.221916
C93	C	-0.352238	-0.106960	-0.324907
C94	C	0.147762	0.393040	0.175093
O95	O	-0.431979	-0.056094	-0.238286
O96	O	0.068021	0.443906	0.261714
O97	O	-0.272443	-0.056257	-0.411540
O98	O	0.227557	0.443743	0.088460
C99	C	-0.309047	0.155722	-0.371712
C100	C	0.190953	0.655722	0.128288
C101	C	-0.352162	0.179232	-0.324900
C102	C	0.147838	0.679232	0.175100
C103	C	-0.395289	0.155826	-0.278089
C104	C	0.104711	0.655826	0.221911
C105	C	-0.352146	0.226150	-0.324895
C106	C	0.147854	0.726150	0.175105
C107	C	-0.309020	0.249556	-0.371706
C108	C	0.190980	0.749556	0.128294
C109	C	-0.265909	0.226044	-0.418523
C110	C	0.234091	0.726044	0.081477
C111	C	-0.265921	0.179128	-0.418524
C112	C	0.234079	0.679128	0.081476
C113	C	-0.438400	0.179338	-0.231272
C114	C	0.061600	0.679338	0.268728
C115	C	-0.438384	0.226254	-0.231274
C116	C	0.061616	0.726254	0.268726
C117	C	-0.395257	0.249660	-0.278086
C118	C	0.104743	0.749660	0.221914
C119	C	-0.534740	0.627547	-0.317508
C120	C	-0.034740	1.127547	0.182492
C121	C	-0.612851	0.625643	-0.314379
C122	C	-0.112851	1.125643	0.185621
C123	C	-0.651257	0.652298	-0.357882
C124	C	-0.151257	1.152298	0.142118
C125	C	-0.724651	0.650506	-0.354944
C126	C	-0.224651	1.150506	0.145056
C127	C	-0.759635	0.622062	-0.308500
C128	C	-0.259635	1.122062	0.191500
C129	C	-0.721223	0.595404	-0.264995
C130	C	-0.221223	1.095404	0.235005
C131	C	-0.647832	0.597193	-0.267937
C132	C	-0.147832	1.097193	0.232063
C133	C	-0.978950	0.613753	-0.294881
C134	C	-0.478950	1.113753	0.205119
C135	C	-1.052346	0.611967	-0.291941
C136	C	-0.552346	1.111967	0.208059
C137	C	-1.055769	0.667069	-0.381891
C138	C	-0.555769	1.167069	0.118109
C139	C	-0.982375	0.668858	-0.384826
C140	C	-0.482375	1.168858	0.115174
C141	C	-0.943970	0.642198	-0.341325
C142	C	-0.443970	1.142198	0.158675
N143	N	-0.834655	0.620231	-0.305494
N144	N	-0.334655	1.120231	0.194506
N145	N	-0.868952	0.644027	-0.344334
N146	N	-0.368952	1.144027	0.155666
C147	C	-0.168863	0.636671	-0.332286
C148	C	0.331137	1.136671	0.167714
C149	C	-0.090753	0.638622	-0.335444
C150	C	0.409247	1.138622	0.164556
C151	C	-0.359297	0.627373	-0.508129
C152	C	0.140703	1.127373	-0.008129
C153	C	-0.362340	0.625361	-0.586221
C154	C	0.137660	1.125361	-0.086221
C155	C	-0.352234	0.749271	-0.324891
C156	C	0.147766	1.249271	0.175109
C157	C	-0.352267	0.799204	-0.324899
C158	C	0.147733	1.299204	0.175101
C159	C	-0.344995	0.636825	-0.142335
C160	C	0.155005	1.136825	0.357665
C161	C	-0.341754	0.638929	-0.064251
C162	C	0.158246	1.138929	0.435749
C163	C	-0.318625	0.654012	0.375057
C164	C	0.181375	1.154012	0.875057
C165	C	-0.321674	0.652023	0.301690
C166	C	0.178326	1.152023	0.801690
C167	C	-0.368441	0.621385	0.267045
C168	C	0.131559	1.121385	0.767045
C169	C	-0.412158	0.592732	0.305772
C170	C	0.087842	1.092732	0.805772
C171	C	-0.409105	0.594719	0.379138
C172	C	0.090895	1.094719	0.879138
C173	C	-0.382418	0.612262	0.047842
C174	C	0.117582	1.112262	0.547842
C175	C	-0.385469	0.610278	-0.025530
C176	C	0.114531	1.110278	0.474470
C177	C	-0.294984	0.669569	-0.029607
C178	C	0.205016	1.169569	0.470393
C179	C	-0.291938	0.671555	0.043761
C180	C	0.208062	1.171555	0.543761
C181	C	-0.335652	0.642900	0.082481
C182	C	0.164348	1.142900	0.582481
N183	N	-0.371560	0.619353	0.192051
N184	N	0.128440	1.119353	0.692051
N185	N	-0.332530	0.644931	0.157473
N186	N	0.167470	1.144931	0.657473
H187	H	-0.273852	0.375870	-0.409809
H188	H	0.226148	0.875870	0.090191
H189	H	-0.450234	0.567784	0.277558
H190	H	0.049766	1.067784	0.777558
O191	O	-0.451650	0.566875	0.416649
O192	O	0.048350	1.066875	0.916649
C193	C	-0.493576	0.539402	0.370340
C194	C	0.006424	1.039402	0.870340
H195	H	-0.497980	0.556338	0.318077
H196	H	0.002020	1.056338	0.818077
H197	H	-0.548109	0.534070	0.393937
H198	H	-0.048109	1.034070	0.893937
H199	H	-0.468542	0.505582	0.361562
H200	H	0.031458	1.005582	0.861562
O201	O	-0.617242	0.679980	-0.402901
O202	O	-0.117242	1.179980	0.097099
C203	C	-0.573209	0.711077	-0.364650
C204	C	-0.073209	1.211077	0.135350
H205	H	-0.593185	0.714768	-0.308431
H206	H	-0.093185	1.214768	0.191569
H207	H	-0.573335	0.745002	-0.390148
H208	H	-0.073335	1.245002	0.109852
H209	H	-0.517503	0.698608	-0.364441
H210	H	-0.017503	1.198608	0.135559
H211	H	-0.253857	0.696505	0.071964
H212	H	0.246143	1.196505	0.571964
O213	O	-0.224155	0.015563	-0.464106
O214	O	0.275845	0.515563	0.035894
C215	C	-0.242339	0.024868	-0.533475
C216	C	0.257661	0.524868	-0.033475
H217	H	-0.298618	0.036293	-0.534657
H218	H	0.201382	0.536293	-0.034657
H219	H	-0.237698	-0.006726	-0.568449
H220	H	0.262302	0.493274	-0.068449
H221	H	-0.205407	0.052560	-0.553412
H222	H	0.294593	0.552560	-0.053412
O223	O	-0.279184	0.679902	0.264183
O224	O	0.220816	1.179902	0.764183
C225	C	-0.237244	0.707364	0.310493
C226	C	0.262756	1.207364	0.810493
H227	H	-0.263833	0.709752	0.364024
H228	H	0.236167	1.209752	0.864024
H229	H	-0.230257	0.742343	0.288842
H230	H	0.269743	1.242343	0.788842
H231	H	-0.183728	0.692203	0.316061
H232	H	0.316272	1.192203	0.816061
H233	H	-0.755918	0.672215	-0.390363
H234	H	-0.255918	1.172215	0.109637
O235	O	-0.224117	0.156310	-0.464102
O236	O	0.275883	0.656310	0.035898
C237	C	-0.242298	0.165613	-0.533473
C238	C	0.257702	0.665613	-0.033473
H239	H	-0.298577	0.177037	-0.534659
H240	H	0.201423	0.677037	-0.034659
H241	H	-0.237655	0.134018	-0.568445
H242	H	0.262345	0.634018	-0.068445
H243	H	-0.205365	0.193304	-0.553410
H244	H	0.294635	0.693304	-0.053410
O245	O	-0.224008	0.108082	-0.463904
O246	O	0.275992	0.608082	0.036096
C247	C	-0.176978	0.137352	-0.425808
C248	C	0.323022	0.637352	0.074192
H249	H	-0.199606	0.145147	-0.371530
H250	H	0.300394	0.645147	0.128470
H251	H	-0.168696	0.169838	-0.454821
H252	H	0.331304	0.669838	0.045179
H253	H	-0.124602	0.120740	-0.420267
H254	H	0.375398	0.620740	0.079733
O255	O	-1.093114	0.692892	-0.424224
O256	O	-0.593114	1.192892	0.075776
C257	C	-1.137349	0.665085	-0.467848
C258	C	-0.637349	1.165085	0.032152
H259	H	-1.115422	0.630128	-0.473018
H260	H	-0.615422	1.130128	0.026982
H261	H	-1.140260	0.679889	-0.521910
H262	H	-0.640260	1.179889	-0.021910
H263	H	-1.192133	0.662751	-0.443892
H264	H	-0.692133	1.162751	0.056108
H265	H	-0.947685	0.592047	-0.259459
H266	H	-0.447685	1.092047	0.240541
O267	O	-0.755287	0.567746	-0.219973
O268	O	-0.255287	1.067746	0.280027
C269	C	-0.799296	0.536638	-0.258229
C270	C	-0.299296	1.036638	0.241771
H271	H	-0.812335	0.550815	-0.311056
H272	H	-0.312335	1.050815	0.188944
H273	H	-0.849804	0.530112	-0.227532
H274	H	-0.349804	1.030112	0.272468
H275	H	-0.771336	0.503832	-0.267033
H276	H	-0.271336	1.003832	0.232967
O277	O	-0.224120	0.248801	-0.464069
O278	O	0.275880	0.748801	0.035931
C279	C	-0.265964	0.273799	-0.507745
C280	C	0.234036	0.773799	-0.007745
H281	H	-0.321485	0.258185	-0.509762
H282	H	0.178515	0.758185	-0.009762
H283	H	-0.242741	0.273572	-0.562879
H284	H	0.257259	0.773572	-0.062879
H285	H	-0.267502	0.309855	-0.485914
H286	H	0.232498	0.809855	0.014086
H287	H	-0.953892	0.692020	-0.422645
H288	H	-0.453892	1.192020	0.077355
H289	H	-0.423555	0.585328	-0.053735
H290	H	0.076445	1.085328	0.446265
O291	O	-0.437009	0.464939	-0.232600
O292	O	0.062991	0.964939	0.267400
C293	C	-0.427768	0.511370	-0.242639
C294	C	0.072232	1.011370	0.257361
H295	H	-0.374468	0.518523	-0.267918
H296	H	0.125532	1.018523	0.232082
H297	H	-0.430405	0.530434	-0.189812
H298	H	0.069595	1.030434	0.310188
H299	H	-0.470959	0.522700	-0.278302
H300	H	0.029041	1.022700	0.221698
O301	O	-0.424943	0.584403	0.085342
O302	O	0.075057	1.084403	0.585342
C303	C	-0.466857	0.556927	0.039028
C304	C	0.033143	1.056927	0.539028
H305	H	-0.471284	0.573872	-0.013226
H306	H	0.028716	1.073872	0.486774
H307	H	-0.521382	0.551574	0.062632
H308	H	-0.021382	1.051574	0.562632
H309	H	-0.441798	0.523117	0.030228
H310	H	0.058202	1.023117	0.530228
O311	O	-0.610443	0.571366	-0.225646
O312	O	-0.110443	1.071366	0.274354
C313	C	-0.566230	0.599168	-0.181993
C314	C	-0.066230	1.099168	0.318007
H315	H	-0.556164	0.632831	-0.207261
H316	H	-0.056164	1.132831	0.292739
H317	H	-0.514272	0.582373	-0.174621
H318	H	-0.014272	1.082373	0.325379
H319	H	-0.592499	0.604782	-0.128799
H320	H	-0.092499	1.104782	0.371201
H321	H	-0.473495	0.245392	-0.193145
H322	H	0.026505	0.745392	0.306855
O323	O	-0.437010	0.372336	-0.232553
O324	O	0.062990	0.872336	0.267447
C325	C	-0.395178	0.347352	-0.188844
C326	C	0.104822	0.847352	0.311156
H327	H	-0.342933	0.340988	-0.215857
H328	H	0.157067	0.840988	0.284143
H329	H	-0.423436	0.313901	-0.178226
H330	H	0.076564	0.813901	0.321774
H331	H	-0.385340	0.366963	-0.137106
H332	H	0.114660	0.866963	0.362894
H333	H	-0.274024	-0.196529	-0.409833
H334	H	0.225976	0.303471	0.090167
O335	O	-0.267126	0.464737	-0.417139
O336	O	0.232874	0.964737	0.082861
C337	C	-0.276351	0.511189	-0.407078
C338	C	0.223649	1.011189	0.092922
H339	H	-0.329644	0.516852	-0.381783
H340	H	0.170356	1.016852	0.118217
H341	H	-0.273722	0.527789	-0.459897
H342	H	0.226278	1.027789	0.040103
H343	H	-0.233148	0.526489	-0.371418
H344	H	0.266852	1.026489	0.128582
H345	H	-0.259393	0.692898	-0.061141
H346	H	0.240607	1.192898	0.438859
O347	O	-1.086223	0.584292	-0.246807
O348	O	-0.586223	1.084292	0.253193
C349	C	-1.036588	0.561153	-0.209031
C350	C	-0.536588	1.061153	0.290969
H351	H	-0.985383	0.560115	-0.239902
H352	H	-0.485383	1.060115	0.260098
H353	H	-1.057536	0.525438	-0.200640
H354	H	-0.557536	1.025438	0.299360
H355	H	-1.026709	0.579193	-0.156005
H356	H	-0.526709	1.079193	0.343995
H357	H	-0.280544	0.678962	0.403260
H358	H	0.219456	1.178962	0.903260
H359	H	-0.473552	0.104635	-0.193154
H360	H	0.026448	0.604635	0.306846
H361	H	-0.274005	-0.111420	-0.409844
H362	H	0.225995	0.388580	0.090156
H363	H	-0.430473	-0.111221	-0.239957
H364	H	0.069527	0.388779	0.260043
O365	O	-0.480374	0.015915	-0.185744
O366	O	0.019626	0.515915	0.314256
C367	C	-0.518438	0.046729	-0.144441
C368	C	-0.018438	0.546729	0.355559
H369	H	-0.489545	0.080943	-0.143215
H370	H	0.010455	0.580943	0.356785
H371	H	-0.523702	0.034414	-0.088774
H372	H	-0.023702	0.534414	0.411226
H373	H	-0.572844	0.049748	-0.167934
H374	H	-0.072844	0.549748	0.332066
O375	O	-0.437356	-0.200046	-0.232709
O376	O	0.062644	0.299954	0.267291
C377	C	-0.484349	-0.229336	-0.270816
C378	C	0.015651	0.270664	0.229184
H379	H	-0.490920	-0.216720	-0.325963
H380	H	0.009080	0.283280	0.174037
H381	H	-0.537401	-0.230548	-0.243145
H382	H	-0.037401	0.269452	0.256855
H383	H	-0.462725	-0.264421	-0.274155
H384	H	0.037275	0.235579	0.225845
H385	H	-0.473521	0.160285	-0.193152
H386	H	0.026479	0.660285	0.306848
