data_functionalizedCrystal
_audit_creation_method	'MofGen! by Chris Wilmer'
_symmetry_space_group_name_H-M	'P1'
_symmetry_Int_Tables_number	1
_symmetry_cell_setting	triclinic
loop_
_symmetry_equiv_pos_as_xyz
  x,y,z
_cell_length_a	16.625546
_cell_length_b	16.625548
_cell_length_c	19.076919
_cell_angle_alpha	92.280941
_cell_angle_beta	92.269917
_cell_angle_gamma	90.023536
loop_
_atom_site_label
_atom_site_type_symbol
_atom_site_fract_x
_atom_site_fract_y
_atom_site_fract_z
Zn1	Zn	-0.339312	1.214336	-0.397943
Zn2	Zn	-0.468732	1.219665	-0.280246
Zn3	Zn	-0.333921	1.084923	-0.280262
Zn4	Zn	-0.474107	1.079470	-0.397901
O5	O	-0.404018	1.149599	-0.339088
O6	O	-0.356487	1.327875	-0.382341
O7	O	-0.446344	1.206303	-0.181759
O8	O	-0.221805	1.102142	-0.295897
O9	O	-0.451571	1.331790	-0.295870
O10	O	-0.225765	1.197221	-0.382356
O11	O	-0.347298	1.107309	-0.181771
O12	O	-0.352510	0.971368	-0.295856
O13	O	-0.460732	1.092849	-0.496396
O14	O	-0.455504	0.967362	-0.382285
O15	O	-0.361698	1.191934	-0.496426
O16	O	-0.582277	1.201016	-0.295829
O17	O	-0.586225	1.098016	-0.382270
C18	C	-0.404006	0.940109	-0.339068
C19	C	-0.404020	0.850487	-0.339077
C20	C	-0.404027	0.522310	-0.339107
C21	C	-0.404023	0.613619	-0.339096
C22	C	-0.404024	0.686396	-0.339091
C23	C	-0.404019	0.777710	-0.339082
C24	C	-0.613507	1.149524	-0.339059
C25	C	-0.703129	1.149564	-0.339069
C26	C	-1.031308	1.149701	-0.339143
C27	C	-0.939999	1.149661	-0.339124
C28	C	-0.867221	1.149632	-0.339106
C29	C	-0.775906	1.149593	-0.339088
C30	C	-0.193711	1.149695	-0.339133
C31	C	-0.104091	1.149736	-0.339152
C32	C	-0.404031	1.359906	-0.339108
C33	C	-0.404037	1.449527	-0.339117
C34	C	-0.412416	1.141189	-0.522662
C35	C	-0.415995	1.137605	-0.600890
C36	C	-0.366117	1.187507	-0.637659
C37	C	-0.369476	1.184130	-0.711163
C38	C	-0.422718	1.130854	-0.747897
C39	C	-0.472598	1.080946	-0.711123
C40	C	-0.469234	1.084320	-0.637620
C41	C	-0.438304	1.115228	-0.967724
C42	C	-0.441666	1.111860	-1.041231
C43	C	-0.338543	1.215043	-1.041267
C44	C	-0.335187	1.218415	-0.967763
C45	C	-0.385064	1.168505	-0.930995
N46	N	-0.426155	1.127402	-0.823029
N47	N	-0.381623	1.171953	-0.855864
C48	C	-0.395595	1.158022	-0.156228
C49	C	-0.391789	1.161762	-0.078000
H50	H	-0.328863	1.224767	-0.741097
O51	O	-0.517574	1.035763	-0.601873
C52	C	-0.524627	0.930734	-0.518842
C53	C	-0.469787	0.985668	-0.559289
H54	H	-0.486014	0.890231	-0.484392
H55	H	-0.563243	0.892024	-0.557693
H56	H	-0.565234	0.969327	-0.484458
H57	H	-0.429132	0.947138	-0.593674
H58	H	-0.431227	1.024383	-0.520400
H59	H	-0.291835	1.261800	-0.937859
H60	H	-0.322764	1.230892	-0.607756
H61	H	-0.515945	1.037565	-0.741037
O62	O	-0.493358	1.060166	-1.077024
C63	C	-0.544188	1.009199	-1.190246
C64	C	-0.485632	1.067790	-1.149798
H65	H	-0.537949	1.015331	-1.249090
H66	H	-0.608568	1.023974	-1.175838
H67	H	-0.529355	0.944867	-1.175745
H68	H	-0.500390	1.132142	-1.164277
H69	H	-0.421268	1.052946	-1.164209
O70	O	-0.486868	1.066822	-0.932052
C71	C	-0.622981	1.028578	-0.909576
C72	C	-0.568078	1.083469	-0.950003
H73	H	-0.688651	1.042005	-0.924085
H74	H	-0.611508	1.040123	-0.850721
H75	H	-0.609422	0.962918	-0.924029
H76	H	-0.581605	1.149148	-0.935609
H77	H	-0.579562	1.071855	-1.008848
O78	O	-0.290122	1.263436	-1.077092
C79	C	-0.249627	1.304002	-1.190342
C80	C	-0.304502	1.249139	-1.149859
H81	H	-0.261246	1.292474	-1.249181
H82	H	-0.183935	1.290529	-1.175953
H83	H	-0.263116	1.369668	-1.175855
H84	H	-0.291084	1.183455	-1.164324
H85	H	-0.370177	1.262681	-1.164251
