data_functionalizedCrystal
_audit_creation_method	'MofGen! by Chris Wilmer'
_symmetry_space_group_name_H-M	'P1'
_symmetry_Int_Tables_number	1
_symmetry_cell_setting	triclinic
loop_
_symmetry_equiv_pos_as_xyz
  x,y,z
_cell_length_a	20.875641
_cell_length_b	14.560438
_cell_length_c	14.560438
_cell_angle_alpha	60.000905
_cell_angle_beta	89.999936
_cell_angle_gamma	57.589171
loop_
_atom_site_label
_atom_site_type_symbol
_atom_site_fract_x
_atom_site_fract_y
_atom_site_fract_z
Zr1	Zr	0.641476	0.937870	-0.086821
O2	O	0.535150	1.140646	-0.239050
O3	O	0.674070	0.742844	-0.040157
O4	O	0.674067	0.934448	-0.231758
O5	O	0.535156	0.949039	0.103692
O6	O	0.783648	0.922934	-0.226004
O7	O	0.535153	0.949042	-0.047449
O8	O	0.783653	0.580189	0.116735
O9	O	0.535150	1.291784	-0.239047
O10	O	0.769750	0.811598	-0.015958
O11	O	0.687974	0.820189	0.092542
O12	O	0.687970	1.045778	-0.133043
O13	O	0.606193	1.054369	-0.024543
Zr14	Zr	0.816249	0.919501	0.163409
Zr15	Zr	0.816244	0.919506	-0.077643
Zr16	Zr	0.641480	0.937866	0.154231
Zr17	Zr	0.641476	1.178918	-0.086816
Zr18	Zr	0.816248	0.678454	0.163404
O19	O	0.783654	1.114528	0.116745
O20	O	0.783648	1.114534	-0.226000
O21	O	0.535156	1.140640	0.103696
O22	O	0.922575	0.716725	0.315638
O23	O	0.922568	0.716732	-0.027108
O24	O	0.674077	0.742838	0.302588
O25	O	0.922569	0.908333	-0.027104
O26	O	0.783657	0.922924	0.308346
O27	O	0.674077	0.934438	0.302592
O28	O	0.922571	0.908330	0.124037
O29	O	0.674067	1.277187	-0.231752
O30	O	0.783657	0.580185	0.308340
O31	O	0.922574	0.565587	0.315635
O32	O	0.922571	0.565591	0.124030
O33	O	0.535154	1.291781	-0.047442
O34	O	0.674071	1.277183	-0.040147
O35	O	0.769755	0.811594	0.209631
O36	O	0.851531	0.803002	0.101131
O37	O	0.769751	1.037183	-0.015954
O38	O	0.687974	1.045774	0.092546
C39	C	0.728862	0.627172	0.038288
C40	C	0.728862	0.524841	0.038286
C41	C	0.510254	0.951657	0.026814
C42	C	0.436060	0.959454	0.022918
C43	C	0.771547	0.472281	-0.018350
C44	C	0.771550	0.376121	-0.018339
C45	C	0.686177	0.385095	0.094945
C46	C	0.686179	0.481246	0.094941
C47	C	0.443890	0.840880	0.082199
C48	C	0.374174	0.848213	0.078535
C49	C	0.296629	0.974122	0.015584
C50	C	0.288801	1.092705	-0.043699
C51	C	0.358516	1.085370	-0.040028
C52	C	0.083551	1.009166	-0.001942
C53	C	0.013834	1.016492	-0.005611
C54	C	0.099213	0.772000	0.116626
C55	C	0.168925	0.764676	0.120285
C56	C	0.161091	0.883259	0.061007
N57	N	0.225368	0.981621	0.011835
N58	N	0.232352	0.875758	0.064764
C59	C	0.947471	0.905715	0.049774
C60	C	1.021664	0.897918	0.053670
C61	C	0.728857	0.928692	-0.263226
C62	C	0.728855	0.928693	-0.365559
C63	C	0.728863	1.230200	0.038300
C64	C	0.728863	1.332531	0.038302
C65	C	0.686167	1.050931	-0.474752
C66	C	0.686177	1.050924	-0.570900
C67	C	0.771563	0.806431	-0.448648
C68	C	0.771557	0.806439	-0.352502
C69	C	0.728868	0.928680	0.339814
C70	C	0.728870	0.928678	0.442147
C71	C	0.947470	0.604201	0.049768
C72	C	1.021664	0.494073	0.053662
C73	C	0.728867	0.627166	0.339808
C74	C	0.728869	0.524834	0.442139
C75	C	0.947476	0.604195	0.351288
C76	C	1.021671	0.494066	0.457515
C77	C	0.510249	1.253177	-0.274700
C78	C	0.436053	1.363306	-0.380927
C79	C	0.510254	1.253171	0.026820
C80	C	0.436061	1.363298	0.022926
C81	C	0.728857	1.230205	-0.263220
C82	C	0.728855	1.332538	-0.365551
C83	C	1.013817	0.446843	-0.005638
C84	C	1.083523	0.343381	-0.002002
C85	C	1.161075	0.287144	0.060942
C86	C	1.168920	0.334384	0.120244
C87	C	1.099215	0.437851	0.116601
C88	C	1.099208	0.437863	0.450765
C89	C	1.168929	0.334397	0.550568
C90	C	1.161112	0.287130	0.657120
C91	C	1.083567	0.343344	0.663868
C92	C	1.013847	0.446814	0.564066
C93	C	0.358516	1.419521	-0.374177
C94	C	0.288795	1.523016	-0.473980
C95	C	0.296613	1.570288	-0.580532
C96	C	0.374158	1.514068	-0.587280
C97	C	0.443877	1.410582	-0.487478
C98	C	0.443907	1.410539	0.082216
C99	C	0.374201	1.514027	0.078553
C100	C	0.296649	1.570268	0.015606
C101	C	0.288804	1.523023	-0.043692
C102	C	0.358509	1.419543	-0.040035
C103	C	0.771558	0.472269	0.551334
C104	C	0.771550	0.376126	0.647481
C105	C	0.686164	0.385118	0.525224
C106	C	0.686167	0.481266	0.429080
H107	H	0.806303	0.507771	-0.064479
H108	H	0.651401	0.524069	0.340162
C109	C	0.639220	0.337151	0.157246
H110	H	0.645324	0.272370	0.149128
H111	H	0.660300	0.297426	0.235814
H112	H	0.583055	0.412090	0.125211
H113	H	0.651399	0.349631	0.514605
C114	C	0.818512	0.671961	-0.434290
H115	H	0.843936	0.599162	-0.355485
H116	H	0.781658	0.670951	-0.471287
H117	H	0.858915	0.662802	-0.467223
C118	C	1.107852	0.489797	0.181835
H119	H	1.055236	0.559481	0.170651
H120	H	1.136826	0.417717	0.260813
H121	H	1.136817	0.524266	0.154266
C122	C	0.818514	0.671971	-0.232383
H123	H	0.843937	0.599161	-0.238376
H124	H	0.858906	0.662838	-0.190305
H125	H	0.781659	0.670955	-0.194369
C126	C	0.818499	0.318315	-0.080645
H127	H	0.843913	0.358060	-0.114391
H128	H	0.858898	0.223294	-0.027707
H129	H	0.781643	0.337953	-0.138297
C130	C	0.639204	1.185400	-0.489107
H131	H	0.645307	1.167902	-0.416209
H132	H	0.660285	1.231569	-0.527949
H133	H	0.583040	1.239682	-0.532011
C134	C	0.639221	0.539070	0.157240
H135	H	0.613790	0.499351	0.190968
H136	H	0.676069	0.519441	0.214886
H137	H	0.598821	0.634097	0.104288
C138	C	0.203505	1.584837	-0.466543
H139	H	0.163096	1.653253	-0.541237
H140	H	0.197395	1.516447	-0.426920
H141	H	0.197402	1.622972	-0.426897
H142	H	0.239836	1.654554	-0.661788
C143	C	1.254218	0.272568	0.543125
H144	H	1.248882	0.315527	0.465371
H145	H	1.283196	0.285287	0.579690
H146	H	1.283188	0.178742	0.579707
H147	H	0.651417	1.150462	-0.659808
C148	C	0.382746	1.566067	-0.704490
H149	H	0.330115	1.635738	-0.762953
H150	H	0.411711	1.600537	-0.711424
H151	H	0.411700	1.493997	-0.711412
H152	H	0.950677	0.492630	-0.056908
H153	H	1.077120	0.304932	-0.050294
H154	H	0.507027	0.738351	0.133466
H155	H	0.380557	0.751658	0.126810
C156	C	0.254220	0.626177	0.189532
H157	H	0.248899	0.556606	0.224320
H158	H	0.283189	0.618239	0.140233
H159	H	0.283190	0.618231	0.246780
H160	H	1.217889	0.202878	0.738376
H161	H	1.217827	0.202894	0.063900
C162	C	0.107829	0.641567	0.181837
H163	H	0.163997	0.565532	0.219849
H164	H	0.082407	0.639345	0.236214
H165	H	0.082411	0.639344	0.129673
C166	C	-0.071468	1.154994	-0.074860
H167	H	-0.111864	1.142374	-0.068566
H168	H	-0.077590	1.204023	-0.046104
H169	H	-0.077579	1.204020	-0.152645
H170	H	1.232072	0.288581	0.171492
C171	C	1.074978	0.291329	0.781078
H172	H	1.127610	0.221645	0.839541
H173	H	1.046014	0.363378	0.788017
H174	H	1.046023	0.256839	0.787995
H175	H	0.077161	1.105725	-0.050230
H176	H	0.950716	0.492562	0.569578
H177	H	0.507009	1.364812	-0.492987
C178	C	0.349901	1.367554	-0.256983
H179	H	0.293733	1.415881	-0.267273
H180	H	0.375314	1.274109	-0.215684
H181	H	0.375326	1.380651	-0.215701
H182	H	1.105589	0.476332	0.364014
C183	C	0.818520	0.520205	0.565693
H184	H	0.812416	0.584987	0.492795
H185	H	0.797440	0.559928	0.604538
H186	H	0.874685	0.445265	0.608594
H187	H	0.507048	1.364755	0.133482
C188	C	0.382845	1.565965	0.143797
H189	H	0.439017	1.517627	0.181823
H190	H	0.357437	1.659408	0.091657
H191	H	0.357425	1.552871	0.198183
C192	C	0.219981	1.684089	0.011596
H193	H	0.235768	1.704153	0.055935
H194	H	0.188438	1.762431	-0.065068
H195	H	0.188444	1.655885	0.041477
H196	H	0.225652	1.568830	-0.094943
C197	C	0.349872	1.367571	-0.105243
H198	H	0.402489	1.297890	-0.094062
H199	H	0.320901	1.333120	-0.077681
H200	H	0.320905	1.439648	-0.184230
H201	H	0.806310	0.333333	0.736389
H202	H	0.225658	1.195222	-0.094949
H203	H	0.352135	1.181925	-0.088287
