data_functionalizedCrystal
_audit_creation_method	'MofGen! by Chris Wilmer'
_symmetry_space_group_name_H-M	'P1'
_symmetry_Int_Tables_number	1
_symmetry_cell_setting	triclinic
loop_
_symmetry_equiv_pos_as_xyz
  x,y,z
_cell_length_a	6.817900
_cell_length_b	11.102244
_cell_length_c	14.858572
_cell_angle_alpha	93.466518
_cell_angle_beta	104.524003
_cell_angle_gamma	108.604870
loop_
_atom_site_label
_atom_site_type_symbol
_atom_site_fract_x
_atom_site_fract_y
_atom_site_fract_z
V1	V	-4.064541	-0.176638	-0.289958
O2	O	-4.024475	0.007665	-0.284441
O3	O	-4.041634	-0.349452	-0.287972
O4	O	-4.020832	-0.174282	-0.416419
O5	O	-4.045421	-0.168718	-0.155104
V6	V	-4.544258	-0.154551	-0.273828
O7	O	-4.334149	-0.225089	-0.325339
O8	O	-4.724848	-0.106100	-0.238448
O9	O	-4.343959	0.018263	-0.275814
O10	O	-4.701722	-0.338854	-0.279346
O11	O	-4.680776	-0.162471	-0.408682
O12	O	-4.364762	-0.156907	-0.147367
C13	C	-3.892685	-0.391569	-0.283397
C14	C	-3.955273	-0.532850	-0.282617
C15	C	-3.938305	-0.580848	-0.197090
C16	C	-3.997126	-0.713599	-0.196367
C17	C	-4.089876	-0.750341	-0.366707
C18	C	-4.031069	-0.617593	-0.367428
C19	C	-3.862509	-0.496105	-0.112279
C20	C	-3.845534	-0.544102	-0.026744
C21	C	-3.904356	-0.676852	-0.026022
C22	C	-3.980152	-0.761605	-0.110834
C23	C	-3.866148	-0.168121	-0.447243
C24	C	-3.911863	-0.167338	-0.550626
C25	C	-4.079180	-0.164478	-0.929195
C26	C	-4.032619	-0.165274	-0.823865
C27	C	-3.995523	-0.165909	-0.739914
C28	C	-3.948958	-0.166703	-0.634578
C29	C	-4.156252	0.060374	-0.280386
C30	C	-4.072902	0.201653	-0.281173
C31	C	-4.182788	-0.163072	-0.116538
C32	C	-4.116311	-0.163848	-0.013154
H33	H	-3.783835	-0.475089	0.042305
O34	O	-4.163187	-0.832527	-0.449141
C35	C	-4.086221	-0.898433	-0.590071
C36	C	-4.002955	-0.805262	-0.496752
H37	H	-3.956698	-0.876441	-0.628582
H38	H	-4.238153	-0.886361	-0.635837
H39	H	-4.125417	-1.001549	-0.574843
H40	H	-3.963634	-0.702109	-0.511892
H41	H	-3.851098	-0.817446	-0.451014
H42	H	-3.890551	-0.715928	0.043623
O43	O	-4.047903	-0.571118	-0.450573
C44	C	-4.283368	-0.567991	-0.600763
C45	C	-4.264588	-0.620744	-0.506650
H46	H	-4.458553	-0.608071	-0.646120
H47	H	-4.177241	-0.598206	-0.639129
H48	H	-4.228216	-0.458555	-0.586680
H49	H	-4.319773	-0.730181	-0.520649
H50	H	-4.370672	-0.590430	-0.468313
H51	H	-3.814596	-0.388010	-0.112857
H52	H	-4.028059	-0.869699	-0.110239
