data_functionalizedCrystal
_audit_creation_method	'MofGen! by Chris Wilmer'
_symmetry_space_group_name_H-M	'P1'
_symmetry_Int_Tables_number	1
_symmetry_cell_setting	triclinic
loop_
_symmetry_equiv_pos_as_xyz
  x,y,z
_cell_length_a	17.699083
_cell_length_b	8.559649
_cell_length_c	16.776229
_cell_angle_alpha	89.994739
_cell_angle_beta	89.998886
_cell_angle_gamma	76.530840
loop_
_atom_site_label
_atom_site_type_symbol
_atom_site_fract_x
_atom_site_fract_y
_atom_site_fract_z
O1	O	0.992507	0.202110	-0.066174
O2	O	0.770623	0.228404	-0.066200
O3	O	0.901113	-0.017421	-0.066184
O4	O	0.862017	0.447935	-0.066190
O5	O	0.901098	-0.017436	0.066393
O6	O	0.770608	0.228389	0.066377
O7	O	0.992492	0.202095	0.066403
Zn8	Zn	0.881548	0.215240	0.087439
Zn9	Zn	0.881567	0.215259	-0.087236
O10	O	0.862002	0.447920	0.066387
C11	C	0.742473	0.227455	0.000085
C12	C	0.658616	0.224628	0.000075
C13	C	0.904069	-0.076970	0.000103
C14	C	0.912888	-0.254384	0.000100
C15	C	0.601734	0.368922	0.000074
C16	C	0.522943	0.366257	0.000084
C17	C	0.501037	0.219296	0.000090
C18	C	0.557926	0.074990	0.000094
C19	C	0.636715	0.077657	0.000090
C20	C	0.240179	0.064231	0.000114
C21	C	0.161383	0.061575	0.000116
C22	C	0.126407	0.352831	0.000108
C23	C	0.205196	0.355498	0.000104
C24	C	0.262078	0.211193	0.000112
C25	C	0.347512	0.214085	0.000102
C26	C	0.415605	0.216402	0.000094
C27	C	1.020643	0.203044	0.000116
C28	C	1.104499	0.205871	0.000120
C29	C	0.859047	0.507469	0.000098
C30	C	0.850227	0.684883	0.000096
N31	N	0.881540	0.215225	0.206650
N32	N	0.881581	0.215261	-0.206447
C33	C	0.939335	0.106418	0.248374
C34	C	0.939339	0.106417	0.331827
C35	C	0.881552	0.215231	0.373553
C36	C	0.823752	0.324043	0.331823
C37	C	0.823745	0.324036	0.248372
C38	C	0.823777	0.324075	0.668370
C39	C	0.823790	0.324077	0.751827
C40	C	0.939371	0.106456	0.751824
C41	C	0.939364	0.106448	0.668374
C42	C	0.881563	0.215254	0.626651
C43	C	0.881558	0.215252	0.536163
C44	C	0.881559	0.215242	0.464040
H45	H	0.619562	0.488595	0.000068
H46	H	0.986399	0.017817	0.365798
H47	H	0.973285	-0.338124	0.000113
H48	H	0.986435	0.017855	0.785804
C49	C	0.968361	-0.111207	0.154585
C50	C	1.002842	-0.013271	0.202532
H51	H	1.007565	-0.185117	0.126289
H52	H	0.940180	-0.168527	0.187163
H53	H	0.933963	-0.046392	0.117776
H54	H	1.037237	-0.078086	0.239345
H55	H	1.031036	0.044054	0.169951
H56	H	0.776714	0.412671	0.634406
C57	C	0.763207	0.600834	0.222658
C58	C	0.760219	0.443645	0.202504
H59	H	0.723989	0.674671	0.194336
H60	H	0.754938	0.616404	0.278322
H61	H	0.812717	0.618036	0.208969
H62	H	0.710710	0.426439	0.216198
H63	H	0.768482	0.428068	0.146827
C64	C	0.759717	-0.105081	-0.068079
C65	C	0.768694	-0.202096	0.000080
H66	H	0.709379	-0.035308	-0.068090
H67	H	0.797840	-0.043215	-0.068070
H68	H	0.765832	-0.170930	-0.114302
H69	H	0.762585	-0.136247	0.046303
H70	H	0.730559	-0.263967	0.000078
H71	H	0.986422	0.017847	0.634403
C72	C	0.690794	-0.169767	-0.068066
C73	C	0.699246	-0.080952	0.000085
H74	H	0.729402	-0.267683	-0.068068
H75	H	0.640742	-0.192389	-0.068057
H76	H	0.696518	-0.109469	-0.114294
H77	H	0.693516	-0.141246	0.046314
H78	H	0.749310	-0.058335	0.000083
H79	H	0.776729	0.412690	0.785799
H80	H	0.540084	-0.044668	0.000111
H81	H	0.080083	0.470330	0.000106
C82	C	0.772444	0.420700	0.459746
C83	C	0.760231	0.443659	0.377687
H84	H	0.733231	0.494559	0.488058
H85	H	0.770423	0.314071	0.473429
H86	H	0.821956	0.437927	0.473405
H87	H	0.710721	0.426421	0.364028
H88	H	0.762244	0.550313	0.363999
H89	H	0.476631	0.483756	0.000082
H90	H	0.143552	-0.058106	0.000123
H91	H	0.223027	0.475168	0.000095
H92	H	0.286484	-0.053271	0.000122
