data_functionalizedCrystal
_audit_creation_method	'MofGen! by Chris Wilmer'
_symmetry_space_group_name_H-M	'P1'
_symmetry_Int_Tables_number	1
_symmetry_cell_setting	triclinic
loop_
_symmetry_equiv_pos_as_xyz
  x,y,z
_cell_length_a	11.026607
_cell_length_b	8.559649
_cell_length_c	7.681481
_cell_angle_alpha	94.930900
_cell_angle_beta	96.990519
_cell_angle_gamma	90.817659
loop_
_atom_site_label
_atom_site_type_symbol
_atom_site_fract_x
_atom_site_fract_y
_atom_site_fract_z
O1	O	1.536891	-0.663148	-0.146379
O2	O	1.190499	-0.588947	-0.146391
O3	O	1.394212	-0.402223	-0.146382
O4	O	1.333177	-0.849872	-0.146388
O5	O	1.419292	-0.379174	0.146477
O6	O	1.215579	-0.565898	0.146468
O7	O	1.561971	-0.640098	0.146480
Zn8	Zn	1.392757	-0.599339	0.192972
Zn9	Zn	1.359713	-0.629707	-0.192882
O10	O	1.358257	-0.826823	0.146471
C11	C	1.159104	-0.563734	0.000037
C12	C	1.028192	-0.522927	0.000032
C13	C	1.411378	-0.332499	0.000044
C14	C	1.425145	-0.159080	0.000035
C15	C	1.593366	-0.665312	0.000048
C16	C	1.724276	-0.706120	0.000041
C17	C	1.808583	-0.593445	0.000040
C18	C	1.943886	-0.635619	0.000033
C19	C	1.341092	-0.896547	0.000041
C20	C	1.327324	-1.069967	0.000039
N21	N	1.415317	-0.578615	0.456307
N22	N	1.337163	-0.650421	-0.456218
H23	H	1.780594	-0.465756	0.000072
C24	C	1.990641	-0.352755	-0.000059
C25	C	1.863902	-0.344755	-0.000100
C26	C	1.829263	-0.188025	-0.000211
H27	H	2.030594	-0.294208	0.102035
H28	H	2.013148	-0.310419	-0.102231
H29	H	1.841407	-0.387071	0.102062
H30	H	1.823919	-0.403269	-0.102186
H31	H	1.851770	-0.145689	-0.102384
H32	H	1.869224	-0.129491	0.101884
H33	H	1.743267	-0.182578	-0.000255
C34	C	1.201505	-0.144827	0.000112
C35	C	1.114025	-0.027865	0.000159
C36	C	0.998109	-0.096775	0.000249
H37	H	1.183059	-0.215906	-0.101992
H38	H	1.200656	-0.199813	0.102274
H39	H	1.114870	0.027095	-0.101992
H40	H	1.132431	0.043222	0.102256
H41	H	0.997260	-0.151761	0.102411
H42	H	0.979675	-0.167854	-0.101857
H43	H	0.938741	-0.017427	0.000298
C44	C	1.230899	-0.748425	0.443616
C45	C	1.239796	-0.903377	0.488295
C46	C	1.141936	-0.993710	0.396028
H47	H	1.156051	-0.706768	0.473684
H48	H	1.233344	-0.746270	0.320639
H49	H	1.237340	-0.905526	0.611245
H50	H	1.314624	-0.945081	0.458222
H51	H	1.144381	-0.991555	0.273051
H52	H	1.067094	-0.952039	0.426103
H53	H	1.147965	-1.098857	0.426317
C54	C	1.521650	-0.480637	0.556353
C55	C	1.512782	-0.325702	0.511609
C56	C	1.610718	-0.235406	0.603719
H57	H	1.519307	-0.482705	0.679340
H58	H	1.596452	-0.522407	0.526169
H59	H	1.437999	-0.283944	0.541805
H60	H	1.515140	-0.323586	0.388638
H61	H	1.685520	-0.277175	0.573536
H62	H	1.608367	-0.237487	0.726702
H63	H	1.604720	-0.130277	0.573362
H64	H	1.971872	-0.763313	0.000039
H65	H	1.752268	-0.833806	0.000047
H66	H	1.519435	-0.102694	0.000052
