data_functionalizedCrystal
_audit_creation_method	'MofGen! by Chris Wilmer'
_symmetry_space_group_name_H-M	'P1'
_symmetry_Int_Tables_number	1
_symmetry_cell_setting	triclinic
loop_
_symmetry_equiv_pos_as_xyz
  x,y,z
_cell_length_a	18.050591
_cell_length_b	18.050589
_cell_length_c	18.050582
_cell_angle_alpha	89.981795
_cell_angle_beta	89.979078
_cell_angle_gamma	90.024227
loop_
_atom_site_label
_atom_site_type_symbol
_atom_site_fract_x
_atom_site_fract_y
_atom_site_fract_z
Zn1	Zn	1.135293	-0.295786	-0.420054
Zn2	Zn	1.468626	0.037548	-0.086721
Zn3	Zn	1.801959	0.370881	0.246613
Zn4	Zn	1.135203	-0.419969	-0.295873
Zn5	Zn	1.468537	-0.086636	0.037460
Zn6	Zn	1.801870	0.246698	0.370793
Zn7	Zn	1.011112	-0.295789	-0.295865
Zn8	Zn	1.344445	0.037545	0.037468
Zn9	Zn	1.677778	0.370878	0.370802
Zn10	Zn	1.011060	-0.419930	-0.420009
Zn11	Zn	1.344393	-0.086596	-0.086676
Zn12	Zn	1.677726	0.246737	0.246658
O13	O	1.073167	-0.357868	-0.357950
O14	O	1.406500	-0.024535	-0.024617
O15	O	1.739833	0.308798	0.308716
O16	O	1.239205	-0.312274	-0.403603
O17	O	1.572539	0.021059	-0.070270
O18	O	1.905872	0.354393	0.263063
O19	O	1.118727	-0.403514	-0.191948
O20	O	1.452060	-0.070181	0.141386
O21	O	1.785393	0.263153	0.474719
O22	O	1.027644	-0.191864	-0.312354
O23	O	1.360977	0.141470	0.020979
O24	O	1.694310	0.474803	0.354312
O25	O	1.239140	-0.403511	-0.312369
O26	O	1.572473	-0.070178	0.020965
O27	O	1.905806	0.263156	0.354298
O28	O	1.118879	-0.191862	-0.403595
O29	O	1.452212	0.141472	-0.070262
O30	O	1.785545	0.474805	0.263071
O31	O	1.027557	-0.312279	-0.191942
O32	O	1.360890	0.021054	0.141392
O33	O	1.694224	0.354387	0.474725
O34	O	0.907180	-0.312241	-0.312311
O35	O	1.240514	0.021092	0.021023
O36	O	1.573847	0.354426	0.354356
O37	O	1.027555	-0.403444	-0.523940
O38	O	1.360888	-0.070111	-0.190606
O39	O	1.694222	0.263223	0.142727
O40	O	0.907142	-0.403447	-0.403519
O41	O	1.240475	-0.070114	-0.070185
O42	O	1.573809	0.263220	0.263148
O43	O	1.118828	-0.312236	-0.523973
O44	O	1.452162	0.021097	-0.190639
O45	O	1.785495	0.354431	0.142694
O46	O	1.118676	-0.523888	-0.312325
O47	O	1.452010	-0.190555	0.021008
O48	O	1.785343	0.142778	0.354342
O49	O	1.027468	-0.523860	-0.403527
O50	O	1.360802	-0.190526	-0.070193
O51	O	1.694135	0.142807	0.263140
C52	C	0.880215	-0.357841	-0.357909
C53	C	1.213548	-0.024507	-0.024576
C54	C	1.546881	0.308826	0.308757
C55	C	0.797669	-0.357847	-0.357909
C56	C	1.131002	-0.024513	-0.024576
C57	C	1.464336	0.308820	0.308757
C58	C	1.073077	-0.550820	-0.357938
C59	C	1.406410	-0.217487	-0.024605
C60	C	1.739744	0.115846	0.308729
C61	C	1.073107	-0.633366	-0.357958
C62	C	1.406440	-0.300033	-0.024624
C63	C	1.739773	0.033300	0.308709
C64	C	0.598217	-0.308191	-0.308425
C65	C	0.931551	0.025142	0.024909
C66	C	1.264884	0.358475	0.358242
C67	C	0.548798	-0.375927	-0.290154
C68	C	0.882131	-0.042594	0.043180
C69	C	1.215464	0.290739	0.376513
C70	C	0.646539	-0.357869	-0.357943
C71	C	0.979872	-0.024536	-0.024610
C72	C	1.313205	0.308797	0.308724
C73	C	0.548877	-0.290157	-0.376212
C74	C	0.882210	0.043176	-0.042879
C75	C	1.215543	0.376510	0.290455
C76	C	0.500553	-0.357885	-0.357974
C77	C	0.833887	-0.024552	-0.024641
C78	C	1.167220	0.308782	0.308693
C79	C	0.598206	-0.425641	-0.339637
C80	C	0.931539	-0.092307	-0.006303
C81	C	1.264873	0.241026	0.327030
C82	C	0.598289	-0.339825	-0.425726
C83	C	0.931622	-0.006491	-0.092393
C84	C	1.264956	0.326842	0.240940
C85	C	0.548892	-0.407607	-0.407481
C86	C	0.882225	-0.074274	-0.074148
C87	C	1.215558	0.259059	0.259186
C88	C	0.730637	-0.357859	-0.357923
C89	C	1.063970	-0.024526	-0.024590
C90	C	1.397303	0.308808	0.308744
C91	C	0.416457	-0.357903	-0.357994
C92	C	0.749790	-0.024569	-0.024660
C93	C	1.083124	0.308764	0.308673
C94	C	1.023557	-0.832828	-0.407536
C95	C	1.356890	-0.499495	-0.074202
C96	C	1.690223	-0.166161	0.259131
C97	C	1.005459	-0.882261	-0.339767
C98	C	1.338792	-0.548928	-0.006433
C99	C	1.672126	-0.215594	0.326900
C100	C	1.073180	-0.784497	-0.357967
C101	C	1.406513	-0.451163	-0.024634
C102	C	1.739846	-0.117830	0.308699
C103	C	1.091314	-0.882146	-0.425744
C104	C	1.424647	-0.548812	-0.092411
C105	C	1.757981	-0.215479	0.240922
C106	C	1.073249	-0.930482	-0.357983
C107	C	1.406582	-0.597148	-0.024649
C108	C	1.739915	-0.263815	0.308684
C109	C	1.055046	-0.832842	-0.290162
C110	C	1.388380	-0.499509	0.043171
C111	C	1.721713	-0.166175	0.376505
C112	C	1.140933	-0.832722	-0.376186
C113	C	1.474266	-0.499389	-0.042852
C114	C	1.807600	-0.166056	0.290481
C115	C	1.122861	-0.882133	-0.308370
C116	C	1.456194	-0.548799	0.024964
C117	C	1.789527	-0.215466	0.358297
C118	C	1.073138	-0.700398	-0.357959
C119	C	1.406471	-0.367065	-0.024626
C120	C	1.739805	-0.033732	0.308707
C121	C	1.073291	-1.014578	-0.357983
C122	C	1.406624	-0.681245	-0.024649
C123	C	1.739957	-0.347911	0.308684
C124	C	1.266872	-0.357897	-0.357992
C125	C	1.600206	-0.024563	-0.024659
C126	C	1.933539	0.308770	0.308675
C127	C	1.349418	-0.357909	-0.358010
C128	C	1.682751	-0.024575	-0.024676
C129	C	2.016085	0.308758	0.308657
C130	C	1.073196	-0.357835	-0.551656
C131	C	1.406529	-0.024502	-0.218323
C132	C	1.739863	0.308831	0.115011
C133	C	1.073208	-0.357821	-0.634202
C134	C	1.406542	-0.024488	-0.300868
C135	C	1.739875	0.308845	0.032465
C136	C	1.073277	-0.164163	-0.357979
C137	C	1.406610	0.169171	-0.024646
C138	C	1.739944	0.502504	0.308688
C139	C	1.073324	-0.081617	-0.357991
C140	C	1.406657	0.251716	-0.024658
C141	C	1.739991	0.585050	0.308675
C142	C	1.023612	-0.407353	-0.833635
C143	C	1.356945	-0.074019	-0.500301
C144	C	1.690278	0.259314	-0.166968
C145	C	1.091367	-0.425511	-0.883034
C146	C	1.424700	-0.092177	-0.549701
C147	C	1.758034	0.241156	-0.216368
C148	C	1.073245	-0.357765	-0.785332
C149	C	1.406578	-0.024431	-0.451999
C150	C	1.739912	0.308902	-0.118666
C151	C	1.005527	-0.339586	-0.883014
C152	C	1.338860	-0.006253	-0.549681
C153	C	1.672194	0.327081	-0.216348
C154	C	1.073274	-0.357711	-0.931317
C155	C	1.406608	-0.024378	-0.597984
C156	C	1.739941	0.308955	-0.264651
C157	C	1.141036	-0.375958	-0.833645
C158	C	1.474369	-0.042625	-0.500312
C159	C	1.807702	0.290708	-0.166978
C160	C	1.055150	-0.290002	-0.833620
C161	C	1.388483	0.043331	-0.500287
C162	C	1.721816	0.376665	-0.166954
C163	C	1.122952	-0.308134	-0.882998
C164	C	1.456285	0.025199	-0.549665
C165	C	1.789619	0.358532	-0.216331
C166	C	1.073227	-0.357797	-0.701234
C167	C	1.406560	-0.024464	-0.367901
C168	C	1.739894	0.308869	-0.034567
C169	C	1.073300	-0.357679	-1.015414
C170	C	1.406633	-0.024345	-0.682081
C171	C	1.739967	0.308988	-0.348747
C172	C	1.073181	-0.357848	-0.164998
C173	C	1.406514	-0.024514	0.168335
C174	C	1.739847	0.308819	0.501668
C175	C	1.073312	-0.357652	-0.082453
C176	C	1.406645	-0.024319	0.250880
C177	C	1.739979	0.309014	0.584214
H178	H	0.619875	-0.266226	-0.266503
H179	H	0.953209	0.067108	0.066830
H180	H	1.286542	0.400441	0.400163
H181	H	0.981531	-0.811178	-0.449395
H182	H	1.314864	-0.477845	-0.116062
H183	H	1.648197	-0.144512	0.217272
H184	H	0.527169	-0.232894	-0.391625
H185	H	0.860502	0.100439	-0.058292
H186	H	1.193835	0.433772	0.275041
H187	H	1.039807	-0.232736	-0.811899
H188	H	1.373141	0.100598	-0.478566
H189	H	1.706474	0.433931	-0.145232
F190	F	1.177892	-0.253293	-0.911153
F191	F	1.511225	0.080040	-0.577820
F192	F	1.844558	0.413373	-0.244486
F193	F	0.930607	-0.910701	-0.319626
F194	F	1.263940	-0.577367	0.013707
F195	F	1.597273	-0.244034	0.347040
H196	H	0.527060	-0.391202	-0.232844
H197	H	0.860393	-0.057868	0.100489
H198	H	1.193727	0.275465	0.433823
H199	H	0.981678	-0.449342	-0.811961
H200	H	1.315012	-0.116009	-0.478628
H201	H	1.648345	0.217324	-0.145294
H202	H	0.619785	-0.482928	-0.324134
H203	H	0.953118	-0.149595	0.009199
H204	H	1.286451	0.183739	0.342533
F205	F	0.520759	-0.462588	-0.462234
F206	F	0.854093	-0.129255	-0.128901
F207	F	1.187426	0.204078	0.204433
H208	H	1.039669	-0.811275	-0.232834
H209	H	1.373003	-0.477941	0.100499
H210	H	1.706336	-0.144608	0.433832
F211	F	1.111396	-0.500382	-0.911406
F212	F	1.444729	-0.167049	-0.578072
F213	F	1.778063	0.166284	-0.244739
H214	H	1.164855	-0.903645	-0.266409
H215	H	1.498188	-0.570312	0.066924
H216	H	1.831522	-0.236979	0.400257
H217	H	1.198184	-0.810948	-0.391613
H218	H	1.531518	-0.477615	-0.058280
H219	H	1.864851	-0.144282	0.275053
F220	F	1.111325	-0.910456	-0.500654
F221	F	1.444659	-0.577122	-0.167321
F222	F	1.777992	-0.243789	0.166013
F223	F	1.215926	-0.396118	-0.805421
F224	F	1.549260	-0.062784	-0.472088
F225	F	1.882593	0.270549	-0.138755
F226	F	0.930658	-0.319517	-0.911361
F227	F	1.263991	0.013817	-0.578028
F228	F	1.597325	0.347150	-0.244694
H229	H	0.620045	-0.324530	-0.483019
H230	H	0.953378	0.008804	-0.149686
H231	H	1.286711	0.342137	0.183648
