data_functionalizedCrystal
_audit_creation_method	'MofGen! by Chris Wilmer'
_symmetry_space_group_name_H-M	'P1'
_symmetry_Int_Tables_number	1
_symmetry_cell_setting	triclinic
loop_
_symmetry_equiv_pos_as_xyz
  x,y,z
_cell_length_a	16.120566
_cell_length_b	16.120507
_cell_length_c	16.120297
_cell_angle_alpha	95.611825
_cell_angle_beta	90.125018
_cell_angle_gamma	90.176284
loop_
_atom_site_label
_atom_site_type_symbol
_atom_site_fract_x
_atom_site_fract_y
_atom_site_fract_z
Zn1	Zn	-1.224924	0.422253	0.554860
Zn2	Zn	-0.891591	0.755586	0.888193
Zn3	Zn	-0.558257	1.088919	1.221527
Zn4	Zn	-1.224800	0.554936	0.422159
Zn5	Zn	-0.891467	0.888269	0.755492
Zn6	Zn	-0.558134	1.221603	1.088826
Zn7	Zn	-1.093665	0.408169	0.408096
Zn8	Zn	-0.760332	0.741503	0.741430
Zn9	Zn	-0.426999	1.074836	1.074763
Zn10	Zn	-1.078798	0.554170	0.554084
Zn11	Zn	-0.745465	0.887503	0.887417
Zn12	Zn	-0.412131	1.220836	1.220750
O13	O	-1.155547	0.484882	0.484800
O14	O	-0.822214	0.818215	0.818133
O15	O	-0.488880	1.151549	1.151466
O16	O	-1.340942	0.446068	0.543467
O17	O	-1.007609	0.779401	0.876800
O18	O	-0.674275	1.112735	1.210134
O19	O	-1.213575	0.529894	0.303661
O20	O	-0.880242	0.863227	0.636995
O21	O	-0.546909	1.196561	0.970328
O22	O	-1.117351	0.293408	0.422004
O23	O	-0.784018	0.626741	0.755338
O24	O	-0.450684	0.960074	1.088671
O25	O	-1.340851	0.543550	0.445972
O26	O	-1.007518	0.876883	0.779306
O27	O	-0.674185	1.210217	1.112639
O28	O	-1.213786	0.303754	0.529831
O29	O	-0.880453	0.637088	0.863164
O30	O	-0.547119	0.970421	1.196498
O31	O	-1.117231	0.422065	0.293330
O32	O	-0.783898	0.755399	0.626663
O33	O	-0.450564	1.088732	0.959996
O34	O	-0.975659	0.421322	0.421252
O35	O	-0.642325	0.754655	0.754585
O36	O	-0.308992	1.087989	1.087918
O37	O	-1.092012	0.542244	0.670819
O38	O	-0.758678	0.875577	1.004152
O39	O	-0.425345	1.208910	1.337485
O40	O	-0.964736	0.528588	0.528508
O41	O	-0.631402	0.861921	0.861841
O42	O	-0.298069	1.195254	1.195174
O43	O	-1.199370	0.445325	0.671389
O44	O	-0.866036	0.778658	1.004722
O45	O	-0.532703	1.111991	1.338056
O46	O	-1.199159	0.671464	0.445219
O47	O	-0.865826	1.004798	0.778553
O48	O	-0.532492	1.338131	1.111886
O49	O	-1.091892	0.670901	0.542144
O50	O	-0.758558	1.004235	0.875477
O51	O	-0.425225	1.337568	1.208810
C52	C	-0.940111	0.473344	0.473270
C53	C	-0.606777	0.806677	0.806603
C54	C	-0.273444	1.140011	1.139937
C55	C	-0.847944	0.468429	0.468358
C56	C	-0.514610	0.801763	0.801692
C57	C	-0.181277	1.135096	1.135025
C58	C	-1.143920	0.701426	0.495143
C59	C	-0.810587	1.034759	0.828476
C60	C	-0.477254	1.368092	1.161809
C61	C	-1.139021	0.794069	0.499599
C62	C	-0.805687	1.127403	0.832933
C63	C	-0.472354	1.460736	1.166266
C64	C	-0.679194	0.459437	0.459397
C65	C	-0.345861	0.792770	0.792730
C66	C	-0.012527	1.126103	1.126064
C67	C	-0.632736	0.510399	0.510213
C68	C	-0.299403	0.843732	0.843546
C69	C	0.033931	1.177066	1.176879
C70	C	-0.538838	0.505396	0.505226
C71	C	-0.205504	0.838729	0.838560
C72	C	0.127829	1.172062	1.171893
C73	C	-0.773101	0.464439	0.464382
C74	C	-0.439768	0.797772	0.797715
C75	C	-0.106434	1.131106	1.131049
C76	C	-0.371825	0.496467	0.496361
C77	C	-0.038492	0.829801	0.829695
C78	C	0.294842	1.163134	1.163028
C79	C	-0.463991	0.501409	0.501254
C80	C	-0.130658	0.834743	0.834587
C81	C	0.202675	1.168076	1.167921
C82	C	-1.181032	1.005226	0.461813
C83	C	-0.847699	1.338559	0.795146
C84	C	-0.514366	1.671892	1.128480
C85	C	-1.130090	0.963687	0.507746
C86	C	-0.796757	1.297020	0.841079
C87	C	-0.463424	1.630353	1.174412
C88	C	-1.135061	0.869303	0.503212
C89	C	-0.801727	1.202636	0.836545
C90	C	-0.468394	1.535969	1.169878
C91	C	-1.176063	1.099618	0.466346
C92	C	-0.842730	1.432951	0.799679
C93	C	-0.509396	1.766284	1.133013
C94	C	-1.144046	0.495270	0.702191
C95	C	-0.810713	0.828603	1.035524
C96	C	-0.477379	1.161936	1.368858
C97	C	-1.139145	0.499696	0.794830
C98	C	-0.805812	0.833030	1.128163
C99	C	-0.472478	1.166363	1.461497
C100	C	-1.167209	1.267492	0.474421
C101	C	-0.833876	1.600826	0.807755
C102	C	-0.500543	1.934159	1.141088
C103	C	-1.172099	1.174848	0.469962
C104	C	-0.838766	1.508181	0.803295
C105	C	-0.505433	1.841515	1.136628
C106	C	-1.167054	0.474477	0.268254
C107	C	-0.833721	0.807810	0.601587
C108	C	-0.500387	1.141144	0.934921
C109	C	-1.172128	0.469824	0.175613
C110	C	-0.838795	0.803157	0.508946
C111	C	-0.505462	1.136491	0.842279
C112	C	-1.130167	0.507758	0.964440
C113	C	-0.796834	0.841091	1.297774
C114	C	-0.463501	1.174425	1.631107
C115	C	-1.181103	0.461765	1.006007
C116	C	-0.847770	0.795098	1.339341
C117	C	-0.514436	1.128431	1.672674
C118	C	-1.176108	0.466250	1.100385
C119	C	-0.842775	0.799584	1.433718
C120	C	-0.509441	1.132917	1.767051
C121	C	-1.135161	0.503273	0.870055
C122	C	-0.801828	0.836607	1.203388
C123	C	-0.468495	1.169940	1.536721
H124	H	-0.663482	0.557786	0.557463
H125	H	-0.330148	0.891119	0.890796
H126	H	0.003185	1.224453	1.224130
Br127	Br	-0.627952	0.380458	0.380649
Br128	Br	-0.294619	0.713791	0.713982
Br129	Br	0.038714	1.047124	1.047316
Br130	Br	-1.260057	0.390540	0.947191
Br131	Br	-0.926724	0.723873	1.280524
Br132	Br	-0.593390	1.057206	1.613857
H133	H	-1.082813	0.550500	0.999731
H134	H	-0.749480	0.883834	1.333064
H135	H	-0.416146	1.217167	1.666398
H136	H	-1.082744	0.999008	0.550475
H137	H	-0.749411	1.332342	0.883808
H138	H	-0.416077	1.665675	1.217142
H139	H	-1.228375	0.969908	0.419086
H140	H	-0.895041	1.303241	0.752419
H141	H	-0.561708	1.636574	1.085752
