data_functionalizedCrystal
_audit_creation_method	'MofGen! by Chris Wilmer'
_symmetry_space_group_name_H-M	'P1'
_symmetry_Int_Tables_number	1
_symmetry_cell_setting	triclinic
loop_
_symmetry_equiv_pos_as_xyz
  x,y,z
_cell_length_a	17.699077
_cell_length_b	14.519731
_cell_length_c	16.776229
_cell_angle_alpha	89.992369
_cell_angle_beta	89.993415
_cell_angle_gamma	83.484715
loop_
_atom_site_label
_atom_site_type_symbol
_atom_site_fract_x
_atom_site_fract_y
_atom_site_fract_z
O1	O	1.004422	0.116597	-0.066279
O2	O	0.784088	0.131776	-0.066284
O3	O	0.900089	-0.010076	-0.066274
O4	O	0.888422	0.258448	-0.066289
O5	O	0.900073	-0.010085	0.066302
O6	O	0.784072	0.131767	0.066293
O7	O	1.004407	0.116588	0.066297
Zn8	Zn	0.894237	0.124176	0.087344
Zn9	Zn	0.894258	0.124188	-0.087331
O10	O	0.888406	0.258440	0.066288
C11	C	0.755881	0.131228	0.000004
C12	C	0.671858	0.129599	0.000003
C13	C	0.632380	0.128827	0.072271
C14	C	0.553433	0.127282	0.072272
C15	C	0.513965	0.126516	0.000004
C16	C	0.553449	0.127285	-0.072270
C17	C	0.632395	0.128824	-0.072270
C18	C	0.235067	0.121079	-0.072271
C19	C	0.156115	0.119543	-0.072265
C20	C	0.156106	0.119537	0.072271
C21	C	0.235052	0.121076	0.072271
C22	C	0.274529	0.121840	-0.000002
C23	C	0.360133	0.123514	-0.000003
C24	C	0.428362	0.124849	0.000003
C25	C	0.899534	-0.044437	0.000014
C26	C	0.897896	-0.146811	0.000015
C27	C	0.896565	-0.229949	0.000013
C28	C	0.894902	-0.334251	0.000007
C29	C	0.893582	-0.417384	0.000002
C30	C	0.891919	-0.521692	-0.000003
C31	C	1.032613	0.117136	0.000008
C32	C	1.116636	0.118764	0.000004
C33	C	0.888961	0.292801	-0.000002
C34	C	0.890599	0.395174	-0.000008
N35	N	0.894229	0.124168	0.206556
N36	N	0.894272	0.124189	-0.206542
C37	C	0.945610	0.061382	0.248277
C38	C	0.945614	0.061381	0.331729
C39	C	0.894240	0.124171	0.373459
C40	C	0.842854	0.186960	0.331731
C41	C	0.842847	0.186956	0.248281
C42	C	0.842881	0.186979	0.668279
C43	C	0.842894	0.186980	0.751735
C44	C	0.945649	0.061403	0.751727
C45	C	0.945641	0.061399	0.668276
C46	C	0.894253	0.124184	0.626557
C47	C	0.894248	0.124183	0.536068
C48	C	0.894248	0.124178	0.463945
H49	H	0.664509	0.129459	0.131121
H50	H	0.987452	0.010255	0.365698
N51	N	0.790372	0.251108	0.374342
N52	N	0.744499	0.307160	0.337078
H53	H	0.707431	0.352467	0.367169
N54	N	0.513135	0.126519	-0.146092
N55	N	0.515070	0.191676	-0.194485
H56	H	0.486599	0.191138	-0.246624
N57	N	0.790375	0.251106	0.205661
N58	N	0.814463	0.308313	0.159081
H59	H	0.777402	0.353620	0.128981
H60	H	0.664537	0.129454	-0.131118
H61	H	0.801040	0.238102	0.634317
H62	H	0.987447	0.010254	0.214306
N63	N	0.513120	0.126486	0.146100
N64	N	0.548368	0.127173	0.210619
H65	H	0.519898	0.126609	0.262764
H66	H	0.267201	0.121699	-0.131121
N67	N	0.275380	0.121847	0.146084
N68	N	0.345867	0.123216	0.146073
H69	H	0.374350	0.123757	0.198205
H70	H	0.123982	0.118918	-0.131119
N71	N	0.998133	-0.002734	0.625664
N72	N	1.044010	-0.058786	0.662926
H73	H	1.081085	-0.104081	0.632833
H74	H	0.123954	0.118911	0.131120
H75	H	0.987490	0.010277	0.785704
N76	N	0.790409	0.251129	0.794350
N77	N	0.744530	0.307182	0.757092
H78	H	0.707465	0.352486	0.787188
