data_functionalizedCrystal
_audit_creation_method	'MofGen! by Chris Wilmer'
_symmetry_space_group_name_H-M	'P1'
_symmetry_Int_Tables_number	1
_symmetry_cell_setting	triclinic
loop_
_symmetry_equiv_pos_as_xyz
  x,y,z
_cell_length_a	11.792241
_cell_length_b	17.699083
_cell_length_c	16.776229
_cell_angle_alpha	89.992455
_cell_angle_beta	89.997077
_cell_angle_gamma	83.738215
loop_
_atom_site_label
_atom_site_type_symbol
_atom_site_fract_x
_atom_site_fract_y
_atom_site_fract_z
O1	O	1.505669	0.103738	-0.066213
O2	O	2.005669	0.603738	0.433787
O3	O	1.175200	0.114429	-0.066231
O4	O	1.675200	0.614429	0.433769
O5	O	1.349771	-0.001056	-0.066214
O6	O	1.849771	0.498944	0.433786
O7	O	1.331098	0.219223	-0.066229
O8	O	1.831098	0.719223	0.433771
O9	O	1.349748	-0.001063	0.066362
O10	O	1.849748	0.498937	0.566362
O11	O	1.175177	0.114422	0.066345
O12	O	1.675177	0.614422	0.566345
O13	O	1.505646	0.103731	0.066364
O14	O	2.005646	0.603731	0.566364
Zn15	Zn	1.340408	0.109075	0.087404
Zn16	Zn	1.840408	0.609075	0.587404
Zn17	Zn	1.340438	0.109085	-0.087271
Zn18	Zn	1.840438	0.609085	0.412729
O19	O	1.331075	0.219216	0.066347
O20	O	1.831075	0.719216	0.566347
C21	C	1.132906	0.113754	0.000055
C22	C	1.632906	0.613754	0.500055
C23	C	1.006916	0.111744	0.000048
C24	C	1.506916	0.611744	0.500048
C25	C	1.349091	-0.029260	0.000074
C26	C	1.849091	0.470740	0.500074
C27	C	1.347083	-0.113289	0.000074
C28	C	1.847083	0.386711	0.500074
C29	C	1.449553	-0.161364	0.000081
C30	C	1.949553	0.338636	0.500081
C31	C	1.447660	-0.240317	0.000074
C32	C	1.947660	0.259683	0.500074
C33	C	1.343297	-0.271194	0.000066
C34	C	1.843297	0.228806	0.500066
C35	C	1.240819	-0.223113	0.000056
C36	C	1.740819	0.276887	0.500056
C37	C	1.242713	-0.144161	0.000058
C38	C	1.742713	0.355839	0.500058
C39	C	1.233178	-0.541517	0.000049
C40	C	1.733178	-0.041517	0.500049
C41	C	1.231292	-0.620475	0.000050
C42	C	1.731292	-0.120475	0.500050
C43	C	1.438126	-0.637673	0.000066
C44	C	1.938126	-0.137673	0.500066
C45	C	1.440020	-0.558721	0.000067
C46	C	1.940020	-0.058721	0.500067
C47	C	1.337543	-0.510647	0.000054
C48	C	1.837543	-0.010647	0.500054
C49	C	1.339596	-0.425037	0.000060
C50	C	1.839596	0.074963	0.500060
C51	C	1.341242	-0.356803	0.000065
C52	C	1.841242	0.143197	0.500065
C53	C	0.776248	0.108048	0.000071
C54	C	1.276248	0.608048	0.500071
C55	C	0.904609	0.110101	0.000058
C56	C	1.404609	0.610101	0.500058
C57	C	1.547941	0.104406	0.000076
C58	C	2.047941	0.604406	0.500076
C59	C	1.673930	0.106416	0.000078
C60	C	2.173930	0.606416	0.500078
C61	C	1.331756	0.247420	0.000057
C62	C	1.831756	0.747420	0.500057
C63	C	1.333763	0.331449	0.000051
C64	C	1.833763	0.831449	0.500051
N65	N	1.340396	0.109068	0.206615
N66	N	1.840396	0.609068	0.706615
N67	N	1.340460	0.109086	-0.206483
N68	N	1.840460	0.609086	0.293517
C69	C	1.417719	0.057953	0.248340
C70	C	1.917719	0.557953	0.748340
C71	C	1.417725	0.057952	0.331792
C72	C	1.917725	0.557952	0.831792
C73	C	1.340413	0.109071	0.373518
C74	C	1.840413	0.609071	0.873518
C75	C	1.263081	0.160189	0.331788
C76	C	1.763081	0.660189	0.831788
C77	C	1.263070	0.160185	0.248337
C78	C	1.763070	0.660185	0.748337
C79	C	1.263122	0.160204	0.668335
C80	C	1.763122	0.660204	1.168335
C81	C	1.263141	0.160205	0.751791
C82	C	1.763141	0.660205	1.251791
C83	C	1.417777	0.057971	0.751790
C84	C	1.917777	0.557971	1.251790
C85	C	1.417766	0.057967	0.668339
C86	C	1.917766	0.557967	1.168339
C87	C	1.340431	0.109082	0.626616
C88	C	1.840431	0.609082	1.126616
C89	C	1.340424	0.109081	0.536128
C90	C	1.840424	0.609081	1.036128
C91	C	1.340425	0.109076	0.464005
C92	C	1.840425	0.609076	0.964005
H93	H	1.534538	-0.136230	0.000093
H94	H	2.034538	0.363770	0.500093
H95	H	1.480681	0.016329	0.214372
H96	H	1.980681	0.516329	0.714372
F97	F	1.180768	0.214588	0.203932
F98	F	1.680768	0.714588	0.703932
H99	H	1.155844	-0.248259	0.000044
H100	H	1.655844	0.251741	0.500044
H101	H	1.159272	-0.105019	0.000052
H102	H	1.659272	0.394981	0.500052
F103	F	1.547192	-0.688843	0.000077
F104	F	2.047192	-0.188843	0.500077
H105	H	1.480687	0.016329	0.365764
H106	H	1.980687	0.516329	0.865764
F107	F	1.120209	-0.653334	0.000040
F108	F	1.620209	-0.153334	0.500040
F109	F	1.500056	0.003562	0.623934
F110	F	2.000056	0.503562	1.123934
F111	F	1.500082	0.003566	0.796201
F112	F	2.000082	0.503566	1.296201
H113	H	1.200179	0.201834	0.785763
H114	H	1.700179	0.701834	1.285763
H115	H	1.149735	-0.502384	0.000039
H116	H	1.649735	-0.002384	0.500039
F117	F	1.180820	0.214606	0.623936
F118	F	1.680820	0.714606	1.123936
H119	H	1.200126	0.201809	0.365766
H120	H	1.700126	0.701809	0.865766
H121	H	1.531101	-0.279457	0.000081
H122	H	2.031101	0.220543	0.500081
F123	F	1.551097	-0.525864	0.000075
F124	F	2.051097	-0.025864	0.500075
