data_functionalizedCrystal
_audit_creation_method	'MofGen! by Chris Wilmer'
_symmetry_space_group_name_H-M	'P1'
_symmetry_Int_Tables_number	1
_symmetry_cell_setting	triclinic
loop_
_symmetry_equiv_pos_as_xyz
  x,y,z
_cell_length_a	10.654545
_cell_length_b	15.995292
_cell_length_c	9.730223
_cell_angle_alpha	89.998793
_cell_angle_beta	89.997167
_cell_angle_gamma	83.975848
loop_
_atom_site_label
_atom_site_type_symbol
_atom_site_fract_x
_atom_site_fract_y
_atom_site_fract_z
O1	O	1.666269	0.117587	-0.114265
O2	O	2.166269	0.617587	0.385735
O3	O	1.300640	0.128796	-0.114270
O4	O	1.800640	0.628796	0.385730
O5	O	1.493488	0.001359	-0.114270
O6	O	1.993488	0.501359	0.385730
O7	O	1.473422	0.245024	-0.114266
O8	O	1.973422	0.745024	0.385734
O9	O	1.493475	0.001355	0.114310
O10	O	1.993475	0.501355	0.614310
O11	O	1.300628	0.128792	0.114310
O12	O	1.800628	0.628792	0.614310
O13	O	1.666257	0.117584	0.114314
O14	O	2.166257	0.617584	0.614314
Zn15	Zn	1.483441	0.123188	0.150604
Zn16	Zn	1.983441	0.623188	0.650604
Zn17	Zn	1.483457	0.123192	-0.150560
Zn18	Zn	1.983457	0.623192	0.349440
O19	O	1.473410	0.245021	0.114314
O20	O	1.973410	0.745021	0.614314
C21	C	1.253847	0.127972	0.000019
C22	C	1.753847	0.627972	0.500019
C23	C	1.114436	0.125512	0.000017
C24	C	1.614436	0.625512	0.500017
C25	C	1.048941	0.124352	0.124616
C26	C	1.548941	0.624352	0.624616
C27	C	0.917952	0.122027	0.124616
C28	C	1.417952	0.622027	0.624616
C29	C	0.917966	0.122025	-0.124594
C30	C	1.417966	0.622025	0.375406
C31	C	1.048954	0.124344	-0.124593
C32	C	1.548954	0.624344	0.375407
C33	C	1.492665	-0.029843	0.000017
C34	C	1.992665	0.470157	0.500017
C35	C	1.490216	-0.122810	0.000006
C36	C	1.990216	0.377190	0.500006
C37	C	1.481216	-0.460601	0.000019
C38	C	1.981216	0.039399	0.500019
C39	C	1.620408	-0.436482	0.000531
C40	C	2.120408	0.063518	0.500531
C41	C	1.623053	-0.339791	0.000011
C42	C	2.123053	0.160209	0.500011
C43	C	1.485682	-0.293019	0.000013
C44	C	1.985682	0.206981	0.500013
C45	C	1.416100	-0.322522	-0.130514
C46	C	1.916100	0.177478	0.369486
C47	C	1.414424	-0.419322	-0.130618
C48	C	1.914424	0.080678	0.369382
C49	C	1.411567	-0.419199	0.129320
C50	C	1.911567	0.080801	0.629320
C51	C	1.416725	-0.322677	0.131040
C52	C	1.916725	0.177323	0.631040
C53	C	1.488199	-0.198308	0.000006
C54	C	1.988199	0.301692	0.500006
C55	C	1.478695	-0.555311	0.000017
C56	C	1.978695	-0.055311	0.500017
C57	C	1.713050	0.118408	0.000022
C58	C	2.213050	0.618408	0.500022
C59	C	1.852461	0.120868	0.000015
C60	C	2.352461	0.620868	0.500015
C61	C	1.474233	0.276223	0.000025
C62	C	1.974233	0.776223	0.500025
C63	C	1.476681	0.369190	0.000026
C64	C	1.976681	0.869190	0.500026
N65	N	1.483439	0.123184	0.356140
N66	N	1.983439	0.623184	0.856140
N67	N	1.483469	0.123189	-0.356096
N68	N	1.983469	0.623189	0.143904
C69	C	1.568860	0.066779	0.428067
C70	C	2.068860	0.566779	0.928067
C71	C	1.568873	0.066779	0.571950
C72	C	2.068873	0.566779	1.071950
C73	C	1.398038	0.179597	0.571968
C74	C	1.898038	0.679597	1.071968
C75	C	1.398020	0.179592	0.428087
C76	C	1.898020	0.679592	0.928087
H77	H	0.864634	0.121075	-0.226046
H78	H	1.364634	0.621075	0.273954
H79	H	1.638429	0.020848	0.630508
H80	H	2.138429	0.520848	1.130508
F81	F	0.848252	0.120793	0.257233
F82	F	1.348252	0.620793	0.757233
H83	H	1.677880	-0.321067	-0.093718
H84	H	2.177880	0.178933	0.406282
H85	H	1.102253	0.125303	0.226081
H86	H	1.602253	0.625303	0.726081
F87	F	1.659767	0.006742	0.351501
F88	F	2.159767	0.506742	0.851501
F89	F	1.118664	0.125573	-0.257216
F90	F	1.618664	0.625573	0.242784
H91	H	1.677549	-0.320451	0.093576
H92	H	2.177549	0.179549	0.593576
F93	F	1.690532	-0.472670	0.122883
F94	F	2.190532	0.027330	0.622883
F95	F	1.690154	-0.474002	-0.121130
F96	F	2.190154	0.025998	0.378870
H97	H	1.462624	-0.445857	-0.228191
H98	H	1.962624	0.054143	0.271809
F99	F	1.307137	0.239630	0.648548
F100	F	1.807137	0.739630	1.148548
H101	H	1.312367	-0.434463	-0.136530
H102	H	1.812367	0.065537	0.363470
F103	F	1.307094	0.239626	0.351532
F104	F	1.807094	0.739626	0.851532
F105	F	1.283973	-0.281632	-0.136864
F106	F	1.783973	0.218368	0.363136
F107	F	1.468483	-0.455856	0.258634
F108	F	1.968483	0.044144	0.758634
F109	F	1.479270	-0.295937	-0.257484
F110	F	1.979270	0.204063	0.242516
F111	F	1.285665	-0.280346	0.141348
F112	F	1.785665	0.219654	0.641348
F113	F	1.482942	-0.298023	0.257258
F114	F	1.982942	0.201977	0.757258
H115	H	1.309111	-0.433784	0.130201
H116	H	1.809111	0.066216	0.630201
