data_functionalizedCrystal
_audit_creation_method	'MofGen! by Chris Wilmer'
_symmetry_space_group_name_H-M	'P1'
_symmetry_Int_Tables_number	1
_symmetry_cell_setting	triclinic
loop_
_symmetry_equiv_pos_as_xyz
  x,y,z
_cell_length_a	6.817900
_cell_length_b	15.301048
_cell_length_c	11.102193
_cell_angle_alpha	93.599929
_cell_angle_beta	108.604059
_cell_angle_gamma	104.176180
loop_
_atom_site_label
_atom_site_type_symbol
_atom_site_fract_x
_atom_site_fract_y
_atom_site_fract_z
V1	V	-4.088931	-0.124766	-0.396649
O2	O	-4.071631	0.005989	-0.388696
O3	O	-4.043514	-0.247383	-0.394324
O4	O	-4.066052	-0.122850	-0.569465
O5	O	-4.048937	-0.119407	-0.212342
V6	V	-4.568866	-0.109126	-0.374558
O7	O	-4.358061	-0.159074	-0.445109
O8	O	-4.749933	-0.074818	-0.326098
O9	O	-4.391077	0.013492	-0.376883
O10	O	-4.703562	-0.239880	-0.382511
O11	O	-4.726257	-0.114485	-0.558864
O12	O	-4.368538	-0.111042	-0.201742
C13	C	-3.888414	-0.277274	-0.388167
C14	C	-3.932737	-0.377516	-0.387418
C15	C	-4.065775	-0.796408	-0.267722
C16	C	-4.024124	-0.702221	-0.268433
C17	C	-4.061149	-0.668010	-0.385218
C18	C	-4.139809	-0.727991	-0.501298
C19	C	-4.181444	-0.822175	-0.500585
C20	C	-4.053030	-0.531680	-0.502776
C21	C	-4.011396	-0.437489	-0.503489
C22	C	-3.895710	-0.411726	-0.270624
C23	C	-3.937345	-0.505910	-0.269911
C24	C	-4.016007	-0.565885	-0.385992
C25	C	-3.917163	-0.118418	-0.611575
C26	C	-3.979760	-0.117663	-0.752855
C27	C	-4.070194	-0.282821	-0.789700
C28	C	-4.144811	-0.365041	-0.874495
C29	C	-4.203627	-0.364327	-1.007238
C30	C	-4.187828	-0.281382	-1.055189
C31	C	-4.113211	-0.199162	-0.970395
C32	C	-4.054393	-0.199886	-0.837650
C33	C	-4.022792	-0.034006	-0.933550
C34	C	-3.963961	-0.034719	-0.800805
C35	C	-4.006993	0.048938	-0.981501
C36	C	-3.932361	0.131160	-0.896706
C37	C	-3.873541	0.130442	-0.763955
C38	C	-3.889344	0.047501	-0.716011
C39	C	-4.209518	0.043378	-0.383036
C40	C	-4.144434	0.143619	-0.383794
C41	C	-4.180768	-0.115476	-0.159626
C42	C	-4.097409	-0.116227	-0.018344
H43	H	-3.907209	-0.533762	-0.174815
H44	H	-3.960082	-0.653394	-0.173916
H45	H	-3.831654	-0.362890	-0.176106
H46	H	-3.812796	0.197396	-0.694921
H47	H	-4.041590	-0.409639	-0.598587
H48	H	-4.169940	-0.700128	-0.596386
O49	O	-4.006718	-0.283592	-0.646525
H50	H	-4.108656	-0.251500	-0.608407
O51	O	-4.284083	-0.453002	-1.098706
H52	H	-4.285172	-0.510798	-1.043068
O53	O	-3.825908	0.046722	-0.572839
H54	H	-3.653895	0.085547	-0.525037
O55	O	-4.251273	-0.280606	-1.198362
H56	H	-4.305809	-0.351713	-1.249268
H57	H	-4.117068	-0.580509	-0.597301
O58	O	-4.070455	0.049717	-1.124674
H59	H	-3.929473	0.088937	-1.146874
H60	H	-3.919519	0.198686	-0.935760
O61	O	-4.266306	-0.886868	-0.625776
H62	H	-4.285081	-0.847258	-0.707106
H63	H	-4.157674	-0.432573	-0.835438
H64	H	-4.035630	-0.824255	-0.172623
