data_functionalizedCrystal
_audit_creation_method	'MofGen! by Chris Wilmer'
_symmetry_space_group_name_H-M	'P1'
_symmetry_Int_Tables_number	1
_symmetry_cell_setting	triclinic
loop_
_symmetry_equiv_pos_as_xyz
  x,y,z
_cell_length_a	10.654541
_cell_length_b	19.188924
_cell_length_c	9.130307
_cell_angle_alpha	89.994651
_cell_angle_beta	89.999822
_cell_angle_gamma	83.812946
loop_
_atom_site_label
_atom_site_type_symbol
_atom_site_fract_x
_atom_site_fract_y
_atom_site_fract_z
O1	O	1.665760	0.098053	-0.121762
O2	O	1.300082	0.107398	-0.121776
O3	O	1.493478	0.001138	-0.121751
O4	O	1.472364	0.204312	-0.121786
O5	O	1.493472	0.001137	0.121848
O6	O	1.300076	0.107396	0.121823
O7	O	1.665753	0.098052	0.121837
Cu8	Cu	1.482914	0.102724	0.144073
Cu9	Cu	1.482921	0.102725	-0.144011
O10	O	1.472357	0.204311	0.121813
C11	C	1.253296	0.106711	0.000022
C12	C	1.113896	0.104660	0.000018
C13	C	1.083230	0.231721	-0.000022
C14	C	1.002410	0.294285	-0.000048
C15	C	0.871433	0.292353	-0.000049
C16	C	0.821275	0.227850	-0.000020
C17	C	0.902096	0.165286	0.000006
C18	C	1.033074	0.167225	0.000002
C19	C	0.932761	0.038226	0.000057
C20	C	1.063738	0.040156	0.000047
C21	C	0.882603	-0.026277	0.000086
C22	C	0.963425	-0.088843	0.000101
C23	C	1.094409	-0.086908	0.000101
C24	C	1.144559	-0.022408	0.000073
C25	C	1.492793	-0.024878	0.000050
C26	C	1.490744	-0.102396	0.000054
C27	C	1.489792	-0.138801	-0.132733
C28	C	1.487850	-0.211636	-0.132744
C29	C	1.486885	-0.248066	0.000039
C30	C	1.487831	-0.211652	0.132842
C31	C	1.489760	-0.138817	0.132850
N32	N	1.555315	-0.367282	0.098868
N33	N	1.553485	-0.436472	0.098852
C34	C	1.481068	-0.467513	0.000024
N35	N	1.410567	-0.426750	-0.098809
N36	N	1.412403	-0.357554	-0.098797
C37	C	1.484792	-0.327043	0.000045
C38	C	1.478008	-0.582894	-0.132783
C39	C	1.476058	-0.655730	-0.132789
C40	C	1.476051	-0.655745	0.132801
C41	C	1.477989	-0.582910	0.132803
C42	C	1.478973	-0.546489	0.000007
C43	C	1.712540	0.098738	0.000036
C44	C	1.851940	0.100790	0.000031
C45	C	1.473043	0.230327	0.000009
C46	C	1.475091	0.307845	-0.000005
N47	N	1.482918	0.102723	0.346696
N48	N	1.482928	0.102721	-0.346634
C49	C	1.654239	0.008658	0.346707
C50	C	1.739908	-0.038372	0.423380
C51	C	1.739921	-0.038373	0.576713
C52	C	1.654253	0.008661	0.653378
C53	C	1.568584	0.055691	0.576705
C54	C	1.568583	0.055688	0.423368
C55	C	1.397259	0.149752	0.576693
C56	C	1.397250	0.149757	0.423360
C57	C	1.311591	0.196785	0.653358
C58	C	1.225926	0.243820	0.576685
C59	C	1.225918	0.243819	0.423343
C60	C	1.311581	0.196787	0.346687
H61	H	1.160208	-0.137856	0.000127
Br62	Br	1.311594	0.196782	0.861455
H63	H	1.475256	-0.685405	0.240915
H64	H	1.654258	0.008652	0.778230
Br65	Br	1.109663	0.307639	0.680732
Br66	Br	0.761741	0.377261	-0.000064
Br67	Br	1.070485	0.381821	-0.000084
Br68	Br	1.479276	-0.533499	0.313023
Br69	Br	0.895347	-0.176373	0.000159
Br70	Br	1.856160	-0.102206	0.319335
H71	H	1.809675	-0.076672	0.639140
Br72	Br	1.491047	-0.089407	0.313074
H73	H	1.156151	0.282114	0.360924
Br74	Br	0.643519	0.225229	0.000011
H75	H	1.478802	-0.553238	-0.240914
Br76	Br	1.322313	-0.019777	0.000059
Br77	Br	1.654251	0.008665	0.138610
H78	H	1.189877	0.233301	-0.000054
Br79	Br	0.704848	-0.028901	0.000097
H80	H	1.490590	-0.109151	-0.240866
Br81	Br	1.486552	-0.261053	-0.312966
H82	H	1.475276	-0.685369	-0.240924
H83	H	1.311587	0.196784	0.221835
Br84	Br	1.486506	-0.261089	0.313049
