data_functionalizedCrystal
_audit_creation_method	'MofGen! by Chris Wilmer'
_symmetry_space_group_name_H-M	'P1'
_symmetry_Int_Tables_number	1
_symmetry_cell_setting	triclinic
loop_
_symmetry_equiv_pos_as_xyz
  x,y,z
_cell_length_a	14.853558
_cell_length_b	14.519731
_cell_length_c	13.596369
_cell_angle_alpha	89.998627
_cell_angle_beta	89.994596
_cell_angle_gamma	83.659993
loop_
_atom_site_label
_atom_site_type_symbol
_atom_site_fract_x
_atom_site_fract_y
_atom_site_fract_z
O1	O	1.196428	0.120357	-0.081782
O2	O	1.696428	0.620357	0.418218
O3	O	0.933974	0.134709	-0.081786
O4	O	1.433974	0.634709	0.418214
O5	O	1.072150	-0.006707	-0.081775
O6	O	1.572150	0.493293	0.418225
O7	O	1.058253	0.261773	-0.081793
O8	O	1.558253	0.761773	0.418207
O9	O	1.072133	-0.006699	0.081808
O10	O	1.572133	0.493301	0.581808
O11	O	0.933957	0.134717	0.081796
O12	O	1.433957	0.634717	0.581796
O13	O	1.196411	0.120365	0.081801
O14	O	1.696411	0.620365	0.581801
Zn15	Zn	1.065181	0.127542	0.107771
Zn16	Zn	1.565181	0.627542	0.607771
Zn17	Zn	1.065204	0.127532	-0.107756
Zn18	Zn	1.565204	0.627532	0.392244
O19	O	1.058236	0.261781	0.081790
O20	O	1.558236	0.761781	0.581790
C21	C	0.900377	0.134064	0.000004
C22	C	1.400377	0.634064	0.500004
C23	C	0.800291	0.132120	0.000003
C24	C	1.300291	0.632120	0.500003
C25	C	0.753280	0.131204	-0.089170
C26	C	1.253280	0.631204	0.410830
C27	C	0.753260	0.131202	0.089175
C28	C	1.253260	0.631202	0.589175
C29	C	0.659225	0.129370	0.089176
C30	C	1.159225	0.629370	0.589176
C31	C	0.612214	0.128454	0.000004
C32	C	1.112214	0.628454	0.500004
C33	C	0.659237	0.129370	-0.089171
C34	C	1.159237	0.629370	0.410829
C35	C	0.612196	0.128445	0.178349
C36	C	1.112196	0.628445	0.678349
C37	C	0.518156	0.126613	0.178354
C38	C	1.018156	0.626613	0.678354
C39	C	0.471142	0.125703	0.089181
C40	C	0.971142	0.625703	0.589181
C41	C	0.518171	0.126620	0.000003
C42	C	1.018171	0.626620	0.500003
C43	C	0.471160	0.125704	-0.089170
C44	C	0.971160	0.625704	0.410830
C45	C	0.518186	0.126627	-0.178349
C46	C	1.018186	0.626627	0.321651
C47	C	0.612223	0.128460	-0.178345
C48	C	1.112223	0.628460	0.321655
C49	C	0.377105	0.123870	0.089176
C50	C	0.877105	0.623870	0.589176
C51	C	0.377117	0.123869	-0.089171
C52	C	0.877117	0.623869	0.410829
C53	C	1.071490	-0.041062	0.000017
C54	C	1.571490	0.458938	0.500017
C55	C	1.069539	-0.143442	0.000017
C56	C	1.569539	0.356558	0.500017
C57	C	1.067953	-0.226585	0.000015
C58	C	1.567953	0.273415	0.500015
C59	C	1.065972	-0.330893	0.000007
C60	C	1.565972	0.169107	0.500007
C61	C	1.064400	-0.414031	0.000001
C62	C	1.564400	0.085969	0.500001
C63	C	1.062419	-0.518346	-0.000005
C64	C	1.562419	-0.018346	0.499995
C65	C	1.230009	0.121010	0.000008
C66	C	1.730009	0.621010	0.500008
C67	C	1.330094	0.122954	0.000003
C68	C	1.830094	0.622954	0.500003
C69	C	1.058895	0.296136	-0.000004
C70	C	1.558895	0.796136	0.499996
C71	C	1.060847	0.398516	-0.000011
C72	C	1.560847	0.898516	0.499989
N73	N	1.065173	0.127549	0.254863
N74	N	1.565173	0.627549	0.754863
N75	N	1.065220	0.127518	-0.254848
N76	N	1.565220	0.627518	0.245152
C77	C	1.065177	0.127551	0.343861
C78	C	1.565177	0.627551	0.843861
C79	C	1.065186	0.127544	0.455512
C80	C	1.565186	0.627544	0.955512
C81	C	1.065198	0.127534	0.544503
C82	C	1.565198	0.627534	1.044503
C83	C	1.065208	0.127529	0.656161
C84	C	1.565208	0.627529	1.156161
H85	H	0.338819	0.123127	0.161784
H86	H	0.838819	0.623127	0.661784
H87	H	0.338846	0.123129	-0.161787
H88	H	0.838846	0.623129	0.338213
H89	H	0.479876	0.125860	0.250969
H90	H	0.979876	0.625860	0.750969
H91	H	0.791543	0.131940	0.161775
H92	H	1.291543	0.631940	0.661775
Cl93	Cl	0.459078	0.125454	-0.290447
Cl94	Cl	0.959078	0.625454	0.209553
Cl95	Cl	0.671349	0.129608	-0.290444
Cl96	Cl	1.171349	0.629608	0.209556
Cl97	Cl	0.812395	0.132365	-0.201275
Cl98	Cl	1.312395	0.632365	0.298725
H99	H	0.650481	0.129183	0.250949
H100	H	1.150481	0.629183	0.750949
