data_functionalizedCrystal
_audit_creation_method	'MofGen! by Chris Wilmer'
_symmetry_space_group_name_H-M	'P1'
_symmetry_Int_Tables_number	1
_symmetry_cell_setting	triclinic
loop_
_symmetry_equiv_pos_as_xyz
  x,y,z
_cell_length_a	13.262522
_cell_length_b	10.540539
_cell_length_c	9.616153
_cell_angle_alpha	90.003455
_cell_angle_beta	74.079912
_cell_angle_gamma	84.477446
loop_
_atom_site_label
_atom_site_type_symbol
_atom_site_fract_x
_atom_site_fract_y
_atom_site_fract_z
O1	O	1.393964	0.170904	-0.642846
O2	O	1.088518	0.189509	-0.527326
O3	O	1.248210	-0.004540	-0.587720
O4	O	1.234272	0.364953	-0.582452
O5	O	1.248194	-0.004523	-0.356423
O6	O	1.088502	0.189526	-0.296029
O7	O	1.393949	0.170920	-0.411549
Zn8	Zn	1.241223	0.180226	-0.317065
Zn9	Zn	1.241243	0.180204	-0.621810
O10	O	1.234257	0.364969	-0.351155
C11	C	1.049398	0.188478	-0.396885
C12	C	0.932856	0.185363	-0.352809
C13	C	0.878104	0.183911	-0.206015
C14	C	0.768608	0.180973	-0.164592
C15	C	0.713853	0.179497	-0.269960
C16	C	0.768605	0.180958	-0.416757
C17	C	0.878112	0.183886	-0.458184
C18	C	0.713862	0.179472	-0.522130
C19	C	0.768614	0.180933	-0.668927
C20	C	0.878110	0.183862	-0.710347
C21	C	0.932865	0.185338	-0.604979
C22	C	0.604354	0.176543	-0.480703
C23	C	0.604363	0.176518	-0.732873
C24	C	0.713859	0.179457	-0.774295
C25	C	1.247157	-0.051829	-0.471679
C26	C	1.244030	-0.192759	-0.470503
C27	C	1.124206	-0.375499	-0.425705
C28	C	1.127376	-0.228899	-0.426383
C29	C	1.300160	-0.254729	-0.359653
C30	C	1.296179	-0.401250	-0.358036
C31	C	1.298569	-0.401801	-0.621962
C32	C	1.299643	-0.254825	-0.624114
C33	C	1.433069	0.171952	-0.541993
C34	C	1.549611	0.175066	-0.586078
C35	C	1.235310	0.412258	-0.467200
C36	C	1.238437	0.553188	-0.468384
N37	N	1.241217	0.180240	-0.109089
C38	C	1.155754	0.284028	-0.017726
C39	C	1.155461	0.283736	0.143553
C40	C	1.216776	0.047469	0.120941
C41	C	1.216147	0.048098	-0.040039
C42	C	1.351404	0.207988	-0.091376
C43	C	1.350703	0.210972	0.070118
N44	N	1.241242	0.180203	0.170216
H45	H	0.559782	0.175318	-0.818672
H46	H	0.922688	0.185035	-0.829880
H47	H	1.078131	-0.403842	-0.502995
H48	H	1.083209	-0.186050	-0.504359
H49	H	1.385827	-0.232865	-0.387142
H50	H	1.275999	-0.031512	-0.101735
H51	H	1.277355	-0.031680	0.136310
H52	H	1.254683	-0.429205	-0.243611
H53	H	1.384693	-0.231092	-0.664256
H54	H	0.559785	0.175364	-0.361179
H55	H	0.758453	0.180646	-0.893820
H56	H	0.624697	0.177106	-0.236225
H57	H	1.380074	-0.449699	-0.383773
H58	H	1.078306	-0.405437	-0.314160
H59	H	1.082887	-0.186882	-0.314721
H60	H	1.261156	-0.211899	-0.246613
H61	H	1.260820	-0.433145	-0.707792
H62	H	1.137330	0.022602	0.191399
H63	H	1.258573	-0.213738	-0.706290
H64	H	1.382827	-0.449509	-0.654716
H65	H	1.170114	0.382367	0.177586
H66	H	0.724039	0.179766	-0.045071
H67	H	1.417334	0.140353	0.085151
H68	H	1.415010	0.132315	-0.153625
H69	H	1.170168	0.382997	-0.061930
H70	H	0.922696	0.185103	-0.120241
H71	H	1.073715	0.265882	0.213064
H72	H	1.074460	0.266435	-0.027465
H73	H	1.135773	0.023813	-0.047219
H74	H	1.374766	0.302779	-0.140860
H75	H	1.369246	0.308632	0.101337
H76	H	1.022025	0.187735	-0.638698
