data_functionalizedCrystal
_audit_creation_method	'MofGen! by Chris Wilmer'
_symmetry_space_group_name_H-M	'P1'
_symmetry_Int_Tables_number	1
_symmetry_cell_setting	triclinic
loop_
_symmetry_equiv_pos_as_xyz
  x,y,z
_cell_length_a	12.759401
_cell_length_b	16.625545
_cell_length_c	12.759401
_cell_angle_alpha	90.011886
_cell_angle_beta	90.003191
_cell_angle_gamma	90.024602
loop_
_atom_site_label
_atom_site_type_symbol
_atom_site_fract_x
_atom_site_fract_y
_atom_site_fract_z
Zn1	Zn	1.606017	-0.321150	0.593966
Zn2	Zn	1.605925	-0.455955	0.418279
Zn3	Zn	1.430366	-0.321138	0.418305
Zn4	Zn	1.430274	-0.455942	0.593920
O5	O	1.518145	-0.388546	0.506117
O6	O	1.753025	-0.339043	0.570669
O7	O	1.582637	-0.438071	0.271261
O8	O	1.453743	-0.208307	0.441637
O9	O	1.752958	-0.438083	0.441592
O10	O	1.582793	-0.208316	0.570694
O11	O	1.453654	-0.339022	0.271281
O12	O	1.283333	-0.339009	0.441593
O13	O	1.453587	-0.438061	0.740947
O14	O	1.283265	-0.438049	0.570616
O15	O	1.582704	-0.339030	0.740981
O16	O	1.582548	-0.568786	0.441548
O17	O	1.453498	-0.568776	0.570591
C18	C	1.245178	-0.388527	0.506103
C19	C	1.128401	-0.388538	0.506121
C20	C	1.073567	-0.337065	0.573436
C21	C	0.963843	-0.337081	0.573442
C22	C	0.963797	-0.440049	0.438818
C23	C	1.073519	-0.440029	0.438806
C24	C	1.128450	-0.285575	0.640751
C25	C	1.073616	-0.234098	0.708071
C26	C	0.963892	-0.234113	0.708078
C27	C	0.909002	-0.285606	0.640764
C28	C	1.518031	-0.598037	0.506084
C29	C	1.518078	-0.687658	0.506105
C30	C	1.518119	-0.760440	0.506126
C31	C	1.518180	-0.851749	0.506149
C32	C	1.518235	-0.924525	0.506163
C33	C	1.518295	-1.015840	0.506184
C34	C	1.792179	-0.388566	0.506133
C35	C	1.908955	-0.388574	0.506139
C36	C	1.518145	-0.388546	0.780151
C37	C	1.518145	-0.388545	0.896927
C38	C	1.518288	-0.178237	0.506174
C39	C	1.518350	-0.088616	0.506198
C40	C	1.585371	-0.336991	0.951808
C41	C	1.585367	-0.336994	1.061533
C42	C	1.450907	-0.440113	1.061484
C43	C	1.450907	-0.440105	0.951762
C44	C	1.652609	-0.285431	0.896973
C45	C	1.719841	-0.233874	0.951855
C46	C	1.719837	-0.233877	1.061579
C47	C	1.652600	-0.285438	1.116421
C48	C	1.518138	-0.388563	1.233150
C49	C	1.518141	-0.388557	1.116373
H50	H	0.919097	-0.481973	0.384016
H51	H	1.652590	-0.285427	1.205766
C52	C	1.309570	-0.451303	0.828370
C53	C	1.377013	-0.496784	0.891442
H54	H	1.263944	-0.486297	0.791140
H55	H	1.349601	-0.420604	0.780005
H56	H	1.269411	-0.416174	0.871194
H57	H	1.417178	-0.531909	0.848617
H58	H	1.336978	-0.527497	0.939813
H59	H	1.652623	-0.285425	0.807631
C60	C	0.751848	-0.229570	0.714071
C61	C	0.788390	-0.285624	0.640773
H62	H	0.677389	-0.229589	0.714083
H63	H	0.776675	-0.177519	0.696015
H64	H	0.776684	-0.243596	0.781831
H65	H	0.763560	-0.271595	0.573012
H66	H	0.763552	-0.337687	0.658823
H67	H	1.118166	-0.481943	0.383993
H68	H	1.774576	-0.191890	0.907195
C69	C	1.852748	-0.131953	1.050600
C70	C	1.793735	-0.177206	1.121906
H71	H	1.898378	-0.096972	1.087844
H72	H	1.806999	-0.101104	1.007815
H73	H	1.892905	-0.167097	1.007792
H74	H	1.753572	-0.142062	1.164708
H75	H	1.839490	-0.208057	1.164709
H76	H	1.217793	-0.285556	0.640753
H77	H	1.396166	-0.482091	1.106146
C78	C	1.197023	-0.223052	0.849418
C79	C	1.133946	-0.177499	0.782060
H80	H	1.234260	-0.188108	0.895099
H81	H	1.245380	-0.253698	0.809327
H82	H	1.154200	-0.258234	0.889521
H83	H	1.176769	-0.142321	0.741951
H84	H	1.085582	-0.146840	0.822154
C85	C	0.974964	-0.132337	0.841152
C86	C	0.903616	-0.177532	0.782073
H87	H	0.937752	-0.097411	0.886842
H88	H	1.017759	-0.101432	0.795448
H89	H	1.017758	-0.167521	0.881248
H90	H	0.860828	-0.142348	0.741971
H91	H	0.860803	-0.208439	0.827783
