data_functionalizedCrystal
_audit_creation_method	'MofGen! by Chris Wilmer'
_symmetry_space_group_name_H-M	'P1'
_symmetry_Int_Tables_number	1
_symmetry_cell_setting	triclinic
loop_
_symmetry_equiv_pos_as_xyz
  x,y,z
_cell_length_a	14.971486
_cell_length_b	13.448316
_cell_length_c	14.971486
_cell_angle_alpha	89.993189
_cell_angle_beta	83.614129
_cell_angle_gamma	89.998199
loop_
_atom_site_label
_atom_site_type_symbol
_atom_site_fract_x
_atom_site_fract_y
_atom_site_fract_z
O1	O	1.186947	-0.082578	0.116565
O2	O	1.686947	0.417422	0.616565
O3	O	0.926547	-0.082605	0.130524
O4	O	1.426547	0.417395	0.630524
O5	O	1.063727	-0.082584	-0.006656
O6	O	1.563727	0.417416	0.493344
O7	O	1.049768	-0.082599	0.253744
O8	O	1.549768	0.417401	0.753744
O9	O	1.063709	0.082800	-0.006664
O10	O	1.563709	0.582800	0.493336
O11	O	0.926530	0.082779	0.130515
O12	O	1.426530	0.582779	0.630515
O13	O	1.186930	0.082806	0.116556
O14	O	1.686930	0.582806	0.616556
Cu15	Cu	1.056728	0.097893	0.123535
Cu16	Cu	1.556728	0.597893	0.623535
Cu17	Cu	1.056749	-0.097692	0.123545
Cu18	Cu	1.556749	0.402308	0.623545
O19	O	1.049751	0.082784	0.253736
O20	O	1.549751	0.582784	0.753736
C21	C	0.893214	0.000083	0.129895
C22	C	1.393214	0.500083	0.629895
C23	C	0.793917	0.000073	0.128024
C24	C	1.293917	0.500073	0.628024
C25	C	0.736692	0.000070	0.208614
C26	C	1.236692	0.500070	0.708614
C27	C	0.643392	0.000085	0.206850
C28	C	1.143392	0.500085	0.706850
C29	C	0.607320	0.000096	0.124497
C30	C	1.107320	0.500096	0.624497
C31	C	0.664552	0.000102	0.043902
C32	C	1.164552	0.500102	0.543902
C33	C	0.757850	0.000095	0.045666
C34	C	1.257850	0.500095	0.545666
C35	C	0.470090	0.000116	0.040231
C36	C	0.970090	0.500116	0.540231
C37	C	0.376786	0.000122	0.038466
C38	C	0.876786	0.500122	0.538466
C39	C	0.355632	0.000106	0.201415
C40	C	0.855632	0.500106	0.701415
C41	C	0.448930	0.000099	0.203179
C42	C	0.948930	0.500099	0.703179
C43	C	0.506156	0.000103	0.122584
C44	C	1.006156	0.500103	0.622584
C45	C	1.063094	0.000108	-0.039985
C46	C	1.563094	0.500108	0.460015
C47	C	1.061223	0.000107	-0.139282
C48	C	1.561223	0.500107	0.360718
C49	C	1.220263	0.000115	0.117185
C50	C	1.720263	0.500115	0.617185
C51	C	1.319561	0.000119	0.119056
C52	C	1.819561	0.500119	0.619056
N53	N	1.056721	0.235457	0.123527
N54	N	1.556721	0.735457	0.623527
N55	N	1.056764	-0.235257	0.123545
N56	N	1.556764	0.264743	0.623545
C57	C	1.117483	0.287507	0.062809
C58	C	1.617483	0.787507	0.562809
C59	C	1.117488	0.391610	0.062809
C60	C	1.617488	0.891610	0.562809
C61	C	1.056735	0.443662	0.123531
C62	C	1.556735	0.943662	0.623531
C63	C	0.995967	0.391605	0.184252
C64	C	1.495967	0.891605	0.684252
C65	C	0.995958	0.287504	0.184248
C66	C	1.495958	0.787504	0.684248
C67	C	0.995992	0.608585	0.184258
C68	C	1.495992	1.108585	0.684258
C69	C	0.996002	0.712693	0.184264
C70	C	1.496002	1.212693	0.684264
C71	C	1.117522	0.712692	0.062819
C72	C	1.617522	1.212692	0.562819
C73	C	1.117513	0.608591	0.062815
C74	C	1.617513	1.108591	0.562815
C75	C	1.056745	0.556541	0.123537
C76	C	1.556745	1.056541	0.623537
C77	C	1.141812	0.000116	-0.196507
C78	C	1.641812	0.500116	0.303493
C79	C	1.140049	0.000106	-0.289807
C80	C	1.640049	0.500106	0.210193
C81	C	1.057696	0.000093	-0.325879
C82	C	1.557696	0.500093	0.174121
C83	C	0.977101	0.000081	-0.268646
C84	C	1.477101	0.500081	0.231354
C85	C	0.978865	0.000084	-0.175349
C86	C	1.478865	0.500084	0.324651
C87	C	0.973430	0.000077	-0.463109
C88	C	1.473430	0.500077	0.036891
C89	C	0.971665	0.000076	-0.556413
C90	C	1.471665	0.500076	-0.056413
C91	C	1.134614	0.000099	-0.577567
C92	C	1.634614	0.500099	-0.077567
C93	C	1.136378	0.000102	-0.484269
C94	C	1.636378	0.500102	0.015731
C95	C	1.055782	0.000091	-0.427043
C96	C	1.555782	0.500091	0.072957
C97	C	1.050384	0.000091	0.287065
C98	C	1.550384	0.500091	0.787065
C99	C	1.052254	0.000085	0.386362
C100	C	1.552254	0.500085	0.886362
H101	H	0.478296	0.000080	0.270239
H102	H	0.978296	0.500080	0.770239
F103	F	1.182150	0.232120	-0.001817
F104	F	1.682150	0.732120	0.498183
F105	F	0.582492	0.000077	0.292625
F106	F	1.082492	0.500077	0.792625
H107	H	0.913240	0.000077	-0.128756
H108	H	1.413240	0.500077	0.371244
F109	F	0.887650	0.000064	-0.402206
F110	F	1.387650	0.500064	0.097794
H111	H	0.910047	0.000065	-0.298024
H112	H	1.410047	0.500065	0.201976
F113	F	0.818754	0.000102	-0.040108
F114	F	1.318754	0.500102	0.459892
H115	H	0.309033	0.000107	0.267039
H116	H	0.809033	0.500107	0.767039
F117	F	1.182177	0.553193	-0.001807
F118	F	1.682177	1.053193	0.498193
F119	F	0.884016	0.000064	-0.594802
F120	F	1.384016	0.500064	-0.094802
F121	F	0.775073	0.000051	0.296267
F122	F	1.275073	0.500051	0.796267
F123	F	0.338397	0.000160	-0.049183
F124	F	0.838397	0.500160	0.450817
H125	H	0.946505	0.566209	0.233702
H126	H	1.446505	1.066209	0.733702
H127	H	1.166964	0.433989	0.013367
H128	H	1.666964	0.933989	0.513367
H129	H	0.946530	0.755069	0.233709
H130	H	1.446530	1.255069	0.733709
F131	F	0.530993	0.000124	-0.045549
F132	F	1.030993	0.500124	0.454451
F133	F	1.182196	0.768091	-0.001805
F134	F	1.682196	1.268091	0.498195
F135	F	1.225824	0.000117	-0.350707
F136	F	1.725824	0.500117	0.149293
H137	H	0.946496	0.433991	0.233690
H138	H	1.446496	0.933991	0.733690
H139	H	1.208874	0.000132	-0.167145
H140	H	1.708874	0.500132	0.332855
F141	F	0.931284	0.232110	0.248870
F142	F	1.431284	0.732110	0.748870
H143	H	0.635175	0.000126	-0.023152
H144	H	1.135175	0.500126	0.476848
H145	H	1.203437	0.000119	-0.454903
H146	H	1.703437	0.500119	0.045097
F147	F	1.220391	0.000105	-0.638472
F148	F	1.720391	0.500105	-0.138472
