data_functionalizedCrystal
_audit_creation_method	'MofGen! by Chris Wilmer'
_symmetry_space_group_name_H-M	'P1'
_symmetry_Int_Tables_number	1
_symmetry_cell_setting	triclinic
loop_
_symmetry_equiv_pos_as_xyz
  x,y,z
_cell_length_a	13.897449
_cell_length_b	12.759400
_cell_length_c	12.759393
_cell_angle_alpha	90.031564
_cell_angle_beta	90.023192
_cell_angle_gamma	90.015511
loop_
_atom_site_label
_atom_site_type_symbol
_atom_site_fract_x
_atom_site_fract_y
_atom_site_fract_z
Zn1	Zn	1.474721	-0.418181	0.594113
Zn2	Zn	1.974721	0.081819	1.094113
Zn3	Zn	1.474624	-0.593900	0.418433
Zn4	Zn	1.974624	-0.093900	0.918433
Zn5	Zn	1.313411	-0.418238	0.418438
Zn6	Zn	1.813411	0.081762	0.918438
Zn7	Zn	1.313400	-0.593821	0.594060
Zn8	Zn	1.813400	-0.093821	1.094060
O9	O	1.394039	-0.506035	0.506261
O10	O	1.894039	-0.006035	1.006261
O11	O	1.609690	-0.441500	0.570829
O12	O	2.109690	0.058500	1.070829
O13	O	1.453202	-0.570655	0.271413
O14	O	1.953202	-0.070655	0.771413
O15	O	1.334854	-0.271210	0.441766
O16	O	1.834854	0.228790	0.941766
O17	O	1.609618	-0.570600	0.441757
O18	O	2.109618	-0.070600	0.941757
O19	O	1.453368	-0.271168	0.570833
O20	O	1.953368	0.228832	1.070833
O21	O	1.334760	-0.441597	0.271416
O22	O	1.834760	0.058403	0.771416
O23	O	1.178428	-0.441520	0.441715
O24	O	1.678428	0.058480	0.941715
O25	O	1.334836	-0.570465	0.741088
O26	O	1.834836	-0.070465	1.241088
O27	O	1.178420	-0.570521	0.570743
O28	O	1.678420	-0.070521	1.070743
O29	O	1.453358	-0.441423	0.741127
O30	O	1.953358	0.058577	1.241127
O31	O	1.453192	-0.740911	0.441706
O32	O	1.953192	-0.240911	0.941706
O33	O	1.334742	-0.740853	0.570739
O34	O	1.834742	-0.240853	1.070739
C35	C	1.393982	-0.779002	0.506239
C36	C	1.893982	-0.279002	1.006239
C37	C	1.394045	-0.895779	0.506265
C38	C	1.894045	-0.395779	1.006265
C39	C	1.143425	-0.506019	0.506224
C40	C	1.643425	-0.006019	1.006224
C41	C	1.036211	-0.506037	0.506234
C42	C	1.536211	-0.006037	1.006234
C43	C	1.455791	-0.950636	0.439152
C44	C	1.955791	-0.450636	0.939152
C45	C	1.455850	-1.060360	0.439184
C46	C	1.955850	-0.560360	0.939184
C47	C	1.332410	-1.060360	0.573446
C48	C	1.832410	-0.560360	1.073446
C49	C	1.332356	-0.950638	0.573418
C50	C	1.832356	-0.450638	1.073418
C51	C	1.517480	-0.895777	0.371999
C52	C	2.017480	-0.395777	0.871999
C53	C	1.579230	-0.950635	0.304880
C54	C	2.079230	-0.450635	0.804880
C55	C	1.579289	-1.060359	0.304912
C56	C	2.079289	-0.560359	0.804912
C57	C	1.517598	-1.115225	0.372064
C58	C	2.017598	-0.615225	0.872064
C59	C	0.949141	-0.506041	0.506251
C60	C	1.449141	-0.006041	1.006251
C61	C	0.839908	-0.506048	0.506283
C62	C	1.339908	-0.006048	1.006283
C63	C	1.645632	-0.506052	0.506298
C64	C	2.145632	-0.006052	1.006298
C65	C	1.752846	-0.506059	0.506314
C66	C	2.252846	-0.006059	1.006314
C67	C	1.394106	-0.505929	0.780295
C68	C	1.894106	-0.005929	1.280295
C69	C	1.394135	-0.505884	0.897071
C70	C	1.894135	-0.005884	1.397071
C71	C	1.394123	-0.232002	0.506306
C72	C	1.894123	0.267998	1.006306
C73	C	1.394158	-0.115225	0.506325
C74	C	1.894158	0.384775	1.006325
C75	C	1.394027	-0.506065	0.233294
C76	C	1.894027	-0.006065	0.733294
C77	C	1.394185	-0.505814	0.116518
C78	C	1.894185	-0.005814	0.616518
C79	C	1.455858	-0.438685	0.951955
C80	C	1.955858	0.061315	1.451955
C81	C	1.455881	-0.438647	1.061679
C82	C	1.955881	0.061353	1.561679
C83	C	1.332456	-0.573016	1.061626
C84	C	1.832456	-0.073016	1.561626
C85	C	1.332429	-0.573047	0.951904
C86	C	1.832429	-0.073047	1.451904
C87	C	1.517565	-0.371522	0.897123
C88	C	2.017565	0.128478	1.397123
C89	C	1.579293	-0.304319	0.952007
C90	C	2.079293	0.195681	1.452007
C91	C	1.579316	-0.304281	1.061731
C92	C	2.079316	0.195719	1.561731
C93	C	1.517610	-0.371446	1.116571
C94	C	2.017610	0.128554	1.616571
H95	H	1.517436	-0.806435	0.371962
H96	H	2.017436	-0.306435	0.871962
H97	H	1.282078	-0.905973	0.628068
H98	H	1.782078	-0.405973	1.128068
H99	H	1.282218	-0.627698	1.106285
H100	H	1.782218	-0.127698	1.606285
H101	H	1.517555	-0.371547	0.807780
H102	H	2.017555	0.128453	1.307780
H103	H	1.629525	-0.249629	0.907349
H104	H	2.129525	0.250371	1.407349
H105	H	1.629571	-0.249553	1.106415
H106	H	2.129571	0.250447	1.606415
H107	H	1.517659	-1.204570	0.372093
H108	H	2.017659	-0.704570	0.872093
H109	H	1.282154	-0.627750	0.907216
H110	H	1.782154	-0.127750	1.407216
H111	H	1.629462	-0.905957	0.250213
H112	H	2.129462	-0.405957	0.750213
H113	H	1.629575	-1.105021	0.250268
H114	H	2.129575	-0.605021	0.750268
H115	H	1.517623	-0.371397	1.205916
H116	H	2.017623	0.128603	1.705916
H117	H	1.282184	-1.105041	0.628116
H118	H	1.782184	-0.605041	1.128116
