data_functionalizedCrystal
_audit_creation_method	'MofGen! by Chris Wilmer'
_symmetry_space_group_name_H-M	'P1'
_symmetry_Int_Tables_number	1
_symmetry_cell_setting	triclinic
loop_
_symmetry_equiv_pos_as_xyz
  x,y,z
_cell_length_a	19.377372
_cell_length_b	19.376995
_cell_length_c	17.052832
_cell_angle_alpha	63.830845
_cell_angle_beta	78.082108
_cell_angle_gamma	62.049493
loop_
_atom_site_label
_atom_site_type_symbol
_atom_site_fract_x
_atom_site_fract_y
_atom_site_fract_z
Zr1	Zr	0.435638	0.939467	-0.001588
O2	O	0.335919	1.051722	-0.086118
O3	O	0.484965	0.808791	0.000646
O4	O	0.484432	0.957304	-0.136122
O5	O	0.315535	0.895563	0.185471
O6	O	0.580245	0.992327	-0.148632
O7	O	0.336452	0.903209	0.050651
O8	O	0.581198	0.726665	0.096022
O9	O	0.314581	1.161225	-0.059183
O10	O	0.554844	0.895500	0.020871
O11	O	0.467730	0.863655	0.130822
O12	O	0.467103	1.038510	-0.030206
O13	O	0.379989	1.006665	0.079745
Zr14	Zr	0.555088	0.983129	0.193483
Zr15	Zr	0.588449	0.995325	-0.021540
Zr16	Zr	0.402278	0.927271	0.213434
Zr17	Zr	0.401608	1.114111	0.041370
Zr18	Zr	0.589119	0.808485	0.150525
O19	O	0.505761	1.113805	0.191249
O20	O	0.553195	1.131146	-0.114486
O21	O	0.288485	1.034381	0.219617
O22	O	0.654808	0.870874	0.278012
O23	O	0.702242	0.888215	-0.027722
O24	O	0.437531	0.791450	0.306381
O25	O	0.675192	1.027034	0.006424
O26	O	0.506294	0.965292	0.328017
O27	O	0.410482	0.930269	0.340527
O28	O	0.654275	1.019387	0.141244
O29	O	0.436045	1.205625	-0.075042
O30	O	0.554682	0.716971	0.266936
O31	O	0.676145	0.761371	0.251078
O32	O	0.702662	0.771065	0.080163
O33	O	0.288065	1.151531	0.111732
O34	O	0.409528	1.195931	0.095873
O35	O	0.523624	0.884086	0.222101
O36	O	0.610738	0.915931	0.112150
O37	O	0.522997	1.058941	0.061073
O38	O	0.435883	1.027096	0.171024
C39	C	0.537931	0.742845	0.042213
C40	C	0.552377	0.668704	0.023977
C41	C	0.618210	0.580825	-0.059116
C42	C	0.604629	0.650490	-0.041973
C43	C	0.513688	0.617251	0.072813
C44	C	0.527264	0.547579	0.055683
C45	C	0.579525	0.529373	-0.010283
C46	C	0.488579	0.496127	0.104516
C47	C	0.502151	0.426464	0.087384
C48	C	0.554408	0.408253	0.021419
C49	C	0.593097	0.459710	-0.027415
C50	C	0.436315	0.514338	0.170477
C51	C	0.397630	0.462886	0.219310
C52	C	0.411206	0.393218	0.202182
C53	C	0.463462	0.375007	0.136218
C54	C	0.372517	0.341761	0.251016
C55	C	0.386088	0.272098	0.233884
C56	C	0.477034	0.305344	0.119085
C57	C	0.304221	0.891427	0.120904
C58	C	0.239349	0.867714	0.129374
C59	C	-0.203001	1.162964	0.023919
C60	C	-0.263946	1.140662	0.031886
C61	C	-0.172341	0.991370	0.085206
C62	C	-0.111388	1.013660	0.077248
C63	C	-0.126724	1.099458	0.046603
C64	C	-0.035111	0.950153	0.099931
C65	C	0.025838	0.972442	0.091969
C66	C	0.010510	1.058236	0.061323
C67	C	-0.065775	1.121746	0.038641
C68	C	-0.019775	0.864356	0.130570
C69	C	0.056502	0.800850	0.153254
C70	C	0.117452	0.823137	0.145298
C71	C	0.102123	0.908932	0.114652
C72	C	0.193737	0.759627	0.167981
C73	C	0.254686	0.781915	0.160018
C74	C	0.163072	0.931220	0.106690
C75	C	0.686506	1.031169	0.070991
C76	C	0.751378	1.054882	0.062521
C77	C	0.537092	0.976553	-0.173013
C78	C	0.551254	0.981731	-0.264296
C79	C	0.452796	1.179751	0.149681
C80	C	0.438349	1.253892	0.167918
C81	C	0.380034	0.919135	-0.494033
C82	C	0.366730	0.914265	-0.408266
C83	C	0.412859	0.931131	-0.372270
C84	C	0.472296	0.952868	-0.422048
C85	C	0.485605	0.957732	-0.507821
C86	C	0.518431	0.969728	-0.386057
C87	C	0.577868	0.991465	-0.435836
C88	C	0.591174	0.996329	-0.521600
C89	C	0.545044	0.979463	-0.557597
C90	C	0.505121	0.964864	-0.300285
C91	C	0.610693	1.003461	-0.314072
C92	C	0.623997	1.008332	-0.399839
C93	C	0.453635	0.946043	0.364908
C94	C	0.439473	0.940865	0.456191
C95	C	0.729073	0.812716	0.017257
C96	C	0.808392	0.762288	-0.009450
C97	C	0.496202	0.727590	0.311174
C98	C	0.496487	0.648271	0.384220
C99	C	0.687344	0.797460	0.286218
C100	C	0.752501	0.741855	0.350794
C101	C	0.303382	1.125136	-0.094323
C102	C	0.238226	1.180741	-0.158899
C103	C	0.261654	1.109880	0.174638
C104	C	0.182335	1.160308	0.201344
C105	C	0.494525	1.195006	-0.119279
C106	C	0.494240	1.274325	-0.192325
C107	C	0.816466	0.727943	-0.069647
C108	C	0.890990	0.680569	-0.094758
C109	C	0.957439	0.667537	-0.059665
C110	C	0.949361	0.701889	0.000536
C111	C	0.874838	0.749267	0.025641
C112	C	0.525795	0.621687	0.466179
C113	C	0.526057	0.547167	0.534825
C114	C	0.497015	0.499230	0.521508
C115	C	0.467702	0.525820	0.439541
C116	C	0.467436	0.600342	0.370899
C117	C	0.828578	0.732368	0.323726
C118	C	0.889805	0.680133	0.384395
C119	C	0.874954	0.637382	0.472131
C120	C	0.798868	0.646875	0.499200
C121	C	0.737642	0.699113	0.438532
C122	C	0.162147	1.190237	-0.131829
C123	C	0.100916	1.242493	-0.192493
C124	C	0.115766	1.285247	-0.280228
C125	C	0.191853	1.275751	-0.307298
C126	C	0.253081	1.223500	-0.246634
C127	C	0.174261	1.194661	0.261535
C128	C	0.099737	1.242055	0.286626
C129	C	0.033288	1.255090	0.251532
C130	C	0.041365	1.220734	0.191334
C131	C	0.115888	1.173346	0.166238
C132	C	0.523289	1.322241	-0.178983
C133	C	0.523036	1.396764	-0.247613
C134	C	0.493729	1.423374	-0.329584
C135	C	0.464680	1.375450	-0.342926
C136	C	0.464938	1.300925	-0.274298
H137	H	0.471136	0.632086	0.126521
C138	C	0.689381	1.032234	-0.454603
N139	N	0.738628	1.050236	-0.495852
C140	C	0.247345	1.180339	0.300147
N141	N	0.302389	1.169559	0.329229
H142	H	0.316792	0.730202	0.178507
H143	H	0.636135	0.692383	-0.081745
C144	C	0.090869	1.279830	0.352852
N145	N	0.084193	1.308280	0.402735
H146	H	0.038969	1.250213	-0.170436
C147	C	0.124758	1.135550	0.100035
N148	N	0.131433	1.107082	0.050171
C149	C	0.557740	0.674409	0.480850
N150	N	0.581798	0.714119	0.491909
C151	C	0.555536	1.292983	-0.088822
N152	N	0.579832	1.270948	-0.020916
H153	H	0.546689	1.435776	-0.236732
C154	C	-0.048684	1.307215	0.279151
N155	N	-0.110424	1.346474	0.299960
C156	C	0.973495	0.669695	0.354599
N157	N	1.036529	0.661832	0.332153
C158	C	0.435763	0.473075	0.424904
N159	N	0.411711	0.433342	0.413881
C160	C	0.432480	1.404710	-0.433114
N161	N	0.408238	1.426744	-0.501048
C162	C	0.315028	0.361801	0.323573
N163	N	0.271728	0.376895	0.378225
H164	H	0.497236	0.438551	0.577408
C165	C	-0.082645	1.216129	0.004937
N166	N	-0.095350	1.287214	-0.020448
C167	C	-0.155482	0.896995	0.118916
N168	N	-0.142782	0.825909	0.144310
C169	C	0.336770	1.213051	-0.276429
N170	N	0.399805	1.205183	-0.298878
H171	H	0.897552	0.652604	-0.143775
H172	H	-0.012747	1.231355	0.162765
C173	C	0.210596	0.665253	0.201682
N174	N	0.223295	0.594169	0.227068
H175	H	0.203935	1.310568	-0.378739
H176	H	1.018115	0.628957	-0.080114
C177	C	0.650596	0.439673	-0.099973
N178	N	0.693902	0.424580	-0.154621
C179	C	0.048406	1.342714	-0.346953
N180	N	-0.002333	1.385993	-0.397208
H181	H	0.549929	0.525528	0.601558
H182	H	0.519597	0.290516	0.065375
H183	H	0.443573	0.621977	0.304165
C184	C	0.661439	1.022016	-0.274480
N185	N	0.699659	1.035989	-0.244653
H186	H	0.924815	0.594849	0.521522
H187	H	0.868274	0.777225	0.074662
C188	C	0.782546	0.599835	0.595714
N189	N	0.770255	0.564397	0.668409
H190	H	0.441280	1.261917	-0.285173
H191	H	0.493522	1.484059	-0.385457
H192	H	0.565453	0.351532	0.007468
H193	H	0.660772	0.565997	-0.112826
H194	H	0.425263	0.571066	0.184421
H195	H	0.355077	0.477721	0.273017
H196	H	0.840685	0.767170	0.252289
C197	C	1.022464	0.687539	0.039137
N198	N	1.077528	0.676724	0.068215
H199	H	0.675699	0.706828	0.460584
C200	C	0.743382	0.742273	-0.108266
N201	N	0.688338	0.753068	-0.137363
H202	H	0.354586	0.230205	0.273647
H203	H	0.150578	1.001084	0.081765
H204	H	-0.069405	0.846212	0.137045
C205	C	-0.219871	1.257346	-0.009784
N206	N	-0.232575	1.328432	-0.035170
H207	H	0.060141	1.076381	0.054839
H208	H	-0.326056	1.192383	0.013410
H209	H	0.068979	0.730993	0.178203
H210	H	0.150041	1.155425	-0.060395
H211	H	0.456728	0.947165	-0.259762
H212	H	0.318337	0.896565	-0.367740
C213	C	0.329309	0.900567	-0.533630
N214	N	0.291103	0.886576	-0.563453
C215	C	0.398227	0.925765	-0.277920
N216	N	0.387203	0.921722	-0.206853
H217	H	0.555874	0.983431	-0.627436
H218	H	0.639577	1.014019	-0.562127
