data_functionalizedCrystal
_audit_creation_method	'MofGen! by Chris Wilmer'
_symmetry_space_group_name_H-M	'P1'
_symmetry_Int_Tables_number	1
_symmetry_cell_setting	triclinic
loop_
_symmetry_equiv_pos_as_xyz
  x,y,z
_cell_length_a	11.026607
_cell_length_b	15.021413
_cell_length_c	11.026607
_cell_angle_alpha	90.006856
_cell_angle_beta	71.413983
_cell_angle_gamma	90.008489
loop_
_atom_site_label
_atom_site_type_symbol
_atom_site_fract_x
_atom_site_fract_y
_atom_site_fract_z
O1	O	1.726737	0.074030	-0.533608
O2	O	1.360157	0.074031	-0.472845
O3	O	1.513065	0.074027	-0.319936
O4	O	1.573829	0.074034	-0.686516
O5	O	1.513040	-0.074037	-0.319958
O6	O	1.360132	-0.074033	-0.472866
O7	O	1.726712	-0.074034	-0.533629
Zn8	Zn	1.543418	-0.097542	-0.503251
Zn9	Zn	1.543451	0.097539	-0.503223
O10	O	1.573804	-0.074031	-0.686537
C11	C	1.312485	-0.000001	-0.461645
C12	C	1.170471	-0.000000	-0.428228
N13	N	1.543404	-0.230680	-0.503271
C14	C	1.116821	0.000002	-0.520498
C15	C	0.970043	0.000003	-0.485962
C16	C	1.472677	-0.470361	-0.573930
C17	C	1.593228	-0.529696	-0.623818
C18	C	1.543430	-0.412287	-0.503246
C19	C	1.422916	-0.529694	-0.453394
C20	C	1.543445	-0.587711	-0.503223
C21	C	1.664052	-0.470315	-0.553204
C22	C	1.493654	-0.470308	-0.382714
C23	C	1.614277	-0.529615	-0.432570
C24	C	1.543420	-0.311229	-0.503263
C25	C	1.543468	-0.688766	-0.503209
C26	C	1.774384	-0.000000	-0.544828
C27	C	1.916398	0.000005	-0.578245
C28	C	1.501843	-0.000004	-0.272287
C29	C	1.468426	-0.000000	-0.130273
N30	N	1.543472	0.230677	-0.503195
C31	C	1.585026	0.000002	-0.734187
C32	C	1.618443	0.000005	-0.876200
C33	C	1.560695	0.000001	-0.076624
C34	C	1.526160	0.000004	0.070155
H35	H	1.179555	-0.000001	-0.625061
Br36	Br	1.294141	0.000013	-0.025727
Br37	Br	1.065924	-0.000013	-0.253943
H38	H	0.907314	0.000024	-0.381393
H39	H	1.723013	0.000071	0.061072
Br40	Br	1.020937	-0.000009	-0.752539
H41	H	1.766022	-0.444341	-0.595477
Br42	Br	1.714146	-0.572714	-0.332945
Br43	Br	1.373098	-0.426992	-0.673683
H44	H	1.635342	-0.555781	-0.725742
H45	H	1.451510	-0.444201	-0.280813
Br46	Br	1.253041	-0.573172	-0.383137
Br47	Br	1.734981	0.000009	-0.181171
H48	H	1.421590	0.000010	0.132884
