data_functionalizedCrystal
_audit_creation_method	'MofGen! by Chris Wilmer'
_symmetry_space_group_name_H-M	'P1'
_symmetry_Int_Tables_number	1
_symmetry_cell_setting	triclinic
loop_
_symmetry_equiv_pos_as_xyz
  x,y,z
_cell_length_a	35.277628
_cell_length_b	35.288095
_cell_length_c	35.277682
_cell_angle_alpha	59.997929
_cell_angle_beta	89.998958
_cell_angle_gamma	60.000166
loop_
_atom_site_label
_atom_site_type_symbol
_atom_site_fract_x
_atom_site_fract_y
_atom_site_fract_z
O1	O	-0.323087	-0.271234	0.011271
O2	O	-0.267964	-0.193634	-0.011228
O3	O	-0.267962	-0.271233	0.066395
O4	O	-0.323089	-0.193635	-0.066351
O5	O	-0.204915	-0.334261	0.066394
O6	O	-0.204918	-0.256661	-0.011228
O7	O	-0.260040	-0.334261	0.011271
Zn8	Zn	-0.222469	-0.305468	0.000022
Zn9	Zn	-0.305535	-0.222427	0.000022
O10	O	-0.260043	-0.256662	-0.066351
C11	C	-0.163481	-0.071298	-0.023519
C12	C	-0.186872	-0.024531	-0.020298
C13	C	-0.117860	-0.093995	-0.023838
C14	C	-0.163483	-0.139918	-0.023524
C15	C	-0.186875	-0.166518	-0.020308
C16	C	-0.117862	-0.162510	-0.023843
C17	C	-0.094838	-0.139921	-0.023519
C18	C	-0.044836	-0.166525	-0.020298
C19	C	-0.186401	-0.093991	-0.023843
C20	C	-0.004439	-0.188019	-0.017694
C21	C	-0.205769	0.013252	-0.017695
C22	C	-0.205774	-0.188010	-0.017709
C23	C	0.046241	-0.214983	-0.014429
C24	C	-0.229477	0.060653	-0.014430
C25	C	-0.229483	-0.214971	-0.014450
C26	C	-0.500364	-0.466062	0.034181
C27	C	-0.477341	-0.511990	0.034503
C28	C	-0.431722	-0.466060	0.034178
C29	C	-0.408804	-0.511988	0.034500
C30	C	-0.431721	-0.534685	0.034181
C31	C	-0.477342	-0.443470	0.034500
C32	C	-0.665895	-0.342485	0.021756
C33	C	-0.712772	-0.317221	0.018243
C34	C	-0.736287	-0.338907	0.016481
C35	C	-0.787116	-0.311512	0.012664
C36	C	-0.712921	-0.385861	0.018236
C37	C	-0.666047	-0.411125	0.021755
C38	C	-0.642533	-0.389434	0.023515
C39	C	-0.389805	-0.687746	0.021758
C40	C	-0.368199	-0.731097	0.018245
C41	C	-0.322995	-0.752841	0.016478
C42	C	-0.299567	-0.799839	0.012662
C43	C	-0.299393	-0.731235	0.018230
C44	C	-0.320995	-0.687892	0.021751
C45	C	-0.366205	-0.666148	0.023512
C46	C	-0.389808	-0.342477	0.021744
C47	C	-0.368205	-0.317208	0.018222
C48	C	-0.322998	-0.338892	0.016457
C49	C	-0.299573	-0.311495	0.012637
C50	C	-0.299398	-0.385842	0.018210
C51	C	-0.321003	-0.411107	0.021730
C52	C	-0.366208	-0.389423	0.023501
C53	C	-0.591706	-0.416830	0.027326
C54	C	-0.551191	-0.438667	0.030366
C55	C	-0.408299	-0.438663	0.030360
C56	C	-0.389629	-0.416824	0.027317
C57	C	-0.408298	-0.581682	0.030365
C58	C	-0.389627	-0.619146	0.027325
C59	C	-0.432024	-0.061845	-0.438511
C60	C	-0.477645	-0.015917	-0.461431
C61	C	-0.432025	-0.061844	-0.369869
C62	C	-0.477645	-0.015916	-0.392892
C63	C	-0.500668	0.006779	-0.438513
C64	C	-0.409106	-0.084435	-0.392891
C65	C	-0.320834	-0.185425	-0.480424
C66	C	-0.299076	-0.210690	-0.502029
C67	C	-0.322531	-0.189005	-0.547237
C68	C	-0.298945	-0.216401	-0.570661
C69	C	-0.367745	-0.142051	-0.570839
C70	C	-0.389497	-0.116787	-0.549237
C71	C	-0.366040	-0.138476	-0.504027
C72	C	-0.666200	0.159838	-0.549704
C73	C	-0.713077	0.203188	-0.571462
C74	C	-0.736595	0.224934	-0.548009
C75	C	-0.787423	0.271931	-0.571594
C76	C	-0.713230	0.203329	-0.502796
C77	C	-0.666353	0.159987	-0.481041
C78	C	-0.642841	0.138241	-0.504500
C79	C	-0.320836	-0.185423	-0.204335
C80	C	-0.299080	-0.210691	-0.157455
C81	C	-0.322536	-0.189006	-0.133940
C82	C	-0.298950	-0.216402	-0.083110
C83	C	-0.367748	-0.142056	-0.157305
C84	C	-0.389502	-0.116792	-0.204182
C85	C	-0.366040	-0.138478	-0.227695
C86	C	-0.389632	-0.111079	-0.480604
C87	C	-0.408436	-0.089241	-0.461934
C88	C	-0.408437	-0.089240	-0.319041
C89	C	-0.389634	-0.111078	-0.278525
C90	C	-0.551496	0.053776	-0.462102
C91	C	-0.592011	0.091239	-0.480906
O92	O	0.196122	-0.334274	0.011291
O93	O	0.063378	-0.256674	-0.011208
O94	O	0.140994	-0.334276	0.066414
O95	O	0.118506	-0.256671	-0.066331
O96	O	0.140996	-0.271251	0.066419
O97	O	0.063380	-0.193649	-0.011203
O98	O	0.196124	-0.271249	0.011296
Zn99	Zn	0.129752	-0.222442	0.000047
Zn100	Zn	0.129750	-0.305480	0.000041
O101	O	0.118508	-0.193647	-0.066327
O102	O	-0.260036	0.184774	0.011294
O103	O	-0.204910	0.074561	-0.011204
O104	O	-0.204913	0.074554	0.066418
O105	O	-0.260033	0.184781	-0.066328
O106	O	-0.267961	0.074557	0.066413
O107	O	-0.267958	0.074564	-0.011209
O108	O	-0.323083	0.184777	0.011289
Zn109	Zn	-0.305531	0.129671	0.000039
Zn110	Zn	-0.222463	0.129667	0.000046
O111	O	-0.323081	0.184784	-0.066333
O112	O	-0.936929	0.397535	-0.602582
O113	O	-0.804185	0.287317	-0.547454
O114	O	-0.881802	0.287315	-0.547452
O115	O	-0.859312	0.397537	-0.602584
O116	O	-0.881801	0.287314	-0.610498
O117	O	-0.804183	0.287316	-0.610500
O118	O	-0.936927	0.397533	-0.665628
Zn119	Zn	-0.870555	0.342425	-0.648073
Zn120	Zn	-0.870557	0.342426	-0.565008
O121	O	-0.859310	0.397536	-0.665629
O122	O	-0.267961	-0.271234	-0.665316
O123	O	-0.323086	-0.193638	-0.610192
O124	O	-0.323085	-0.271236	-0.610189
O125	O	-0.267962	-0.193636	-0.665319
O126	O	-0.260038	-0.334264	-0.547142
O127	O	-0.260039	-0.256666	-0.547145
O128	O	-0.204914	-0.334262	-0.602269
Zn129	Zn	-0.222466	-0.305471	-0.564697
Zn130	Zn	-0.305534	-0.222429	-0.647764
O131	O	-0.204915	-0.256664	-0.602272
C132	C	-0.094840	-0.456607	0.293255
C133	C	-0.044837	-0.503376	0.316647
C134	C	-0.117862	-0.433912	0.316174
C135	C	-0.163483	-0.387984	0.224612
C136	C	-0.186875	-0.361381	0.174609
C137	C	-0.186401	-0.365393	0.247634
C138	C	-0.163483	-0.387984	0.293255
C139	C	-0.186874	-0.361382	0.316646
C140	C	-0.117862	-0.433912	0.247635
C141	C	-0.205772	-0.339889	0.335543
C142	C	-0.004440	-0.541160	0.335545
C143	C	-0.205773	-0.339888	0.134212
C144	C	-0.229480	-0.312925	0.359250
C145	C	0.046239	-0.588562	0.359254
C146	C	-0.229481	-0.312924	0.083532
C147	C	0.153295	-0.388013	0.293279
C148	C	0.150076	-0.361413	0.316673
C149	C	0.153614	-0.433940	0.316196
C150	C	0.153297	-0.388008	0.224634
C151	C	0.150079	-0.361403	0.174632
C152	C	0.153616	-0.433935	0.247655
C153	C	0.153293	-0.456633	0.293275
C154	C	0.150072	-0.503401	0.316665
C155	C	0.153617	-0.365420	0.247659
C156	C	0.147469	-0.541185	0.335561
C157	C	0.147474	-0.339922	0.335572
C158	C	0.147479	-0.339908	0.134234
C159	C	0.144204	-0.588587	0.359267
C160	C	0.144211	-0.312962	0.359282
C161	C	0.144218	-0.312942	0.083555
C162	C	-0.163482	-0.139963	0.293267
C163	C	-0.186875	-0.166567	0.316654
C164	C	-0.117861	-0.162559	0.316187
C165	C	-0.163482	-0.071333	0.224628
C166	C	-0.186873	-0.024557	0.174627
C167	C	-0.117860	-0.094033	0.247653
C168	C	-0.094838	-0.139967	0.293272
C169	C	-0.044835	-0.166574	0.316665
C170	C	-0.186401	-0.094030	0.247648
C171	C	-0.004438	-0.188070	0.335563
C172	C	-0.205773	-0.188061	0.335549
C173	C	-0.205771	0.013233	0.134231
C174	C	0.046242	-0.215038	0.359273
C175	C	-0.229482	-0.215026	0.359253
C176	C	-0.229479	0.060643	0.083553
C177	C	0.095627	0.006487	-0.438489
C178	C	0.095306	-0.016206	-0.461409
C179	C	0.095623	-0.062137	-0.369847
C180	C	0.095303	-0.084726	-0.392871
C181	C	0.095625	-0.062133	-0.438492
C182	C	0.095305	-0.016210	-0.392868
C183	C	0.108059	0.159543	-0.480399
C184	C	0.111575	0.202893	-0.502003
C185	C	0.113340	0.224640	-0.547210
C186	C	0.117161	0.271637	-0.570634
C187	C	0.111587	0.203038	-0.570814
C188	C	0.108065	0.159695	-0.549212
C189	C	0.106302	0.137948	-0.504002
C190	C	0.108054	-0.116452	-0.549685
C191	C	0.111568	-0.141562	-0.571444
C192	C	0.113332	-0.188519	-0.547992
C193	C	0.117148	-0.215753	-0.571578
C194	C	0.111577	-0.210363	-0.502779
C195	C	0.108055	-0.185249	-0.481023
C196	C	0.106297	-0.138292	-0.504481
C197	C	0.108046	-0.116473	-0.204312
C198	C	0.111564	-0.141591	-0.157432
C199	C	0.113326	-0.188548	-0.133918
C200	C	0.117142	-0.215786	-0.083088
C201	C	0.111574	-0.210388	-0.157283
C202	C	0.108058	-0.185270	-0.204161
C203	C	0.106290	-0.138308	-0.227673
C204	C	0.102487	0.090947	-0.480580
C205	C	0.099445	0.053484	-0.461911
C206	C	0.099438	-0.089371	-0.319019
C207	C	0.102477	-0.111078	-0.278503
C208	C	0.099442	-0.089362	-0.462081
C209	C	0.102482	-0.111066	-0.480886
O210	O	0.118477	-0.256700	0.452885
O211	O	0.140984	-0.334299	0.397762
O212	O	0.063360	-0.256699	0.397752
O213	O	0.196101	-0.334300	0.452895
O214	O	0.063367	-0.193672	0.334708
O215	O	0.140992	-0.271271	0.334718
O216	O	0.118484	-0.193673	0.389842
Zn217	Zn	0.129739	-0.222465	0.352270
Zn218	Zn	0.129729	-0.305506	0.435333
O219	O	0.196108	-0.271272	0.389852
C220	C	-0.500364	0.533998	-0.438484
C221	C	-0.477341	0.556591	-0.461399
C222	C	-0.431721	0.465364	-0.369840
C223	C	-0.408802	0.488061	-0.392859
C224	C	-0.431720	0.533995	-0.438478
C225	C	-0.477342	0.488064	-0.392865
C226	C	-0.665898	0.588334	-0.480407
C227	C	-0.712776	0.613450	-0.502014
C228	C	-0.736291	0.660414	-0.547220
C229	C	-0.787122	0.687654	-0.570647
C230	C	-0.712926	0.682257	-0.570819
C231	C	-0.666050	0.657138	-0.549214
C232	C	-0.642536	0.610174	-0.504006
C233	C	-0.389802	0.657585	-0.549654
C234	C	-0.368196	0.682850	-0.571408
C235	C	-0.322990	0.661164	-0.547952
C236	C	-0.299561	0.688558	-0.571532
C237	C	-0.299388	0.614205	-0.502740
C238	C	-0.320990	0.588935	-0.480990
C239	C	-0.366202	0.610633	-0.504452
C240	C	-0.389804	0.312282	-0.204314
C241	C	-0.368201	0.268929	-0.157436
C242	C	-0.322993	0.247179	-0.133918
C243	C	-0.299567	0.200174	-0.083089
C244	C	-0.299392	0.268786	-0.157278
C245	C	-0.320998	0.312139	-0.204154
C246	C	-0.366204	0.333881	-0.227670
C247	C	-0.591708	0.582942	-0.480581
C248	C	-0.551193	0.561234	-0.461909
C249	C	-0.408297	0.418359	-0.319013
C250	C	-0.389626	0.380890	-0.278499
C251	C	-0.408296	0.561393	-0.462062
C252	C	-0.389624	0.583232	-0.480862
H253	H	-0.223885	-0.074993	-0.024363
O254	O	-0.095894	-0.456526	0.360903
C255	C	-0.126017	-0.426625	0.376278
H256	H	-0.163519	-0.403369	0.354431
H257	H	-0.120540	-0.454951	0.414265
H258	H	-0.118350	-0.397377	0.372572
H259	H	-0.647059	0.142138	-0.568809
H260	H	-0.099380	-0.199466	-0.024359
O261	O	-0.364090	0.465479	-0.370871
C262	C	-0.348708	0.495372	-0.400997
H263	H	-0.379927	0.537924	-0.428575
H264	H	-0.325105	0.496652	-0.380289
H265	H	-0.328653	0.475712	-0.418485
O266	O	-0.364077	-0.534601	0.035144
C267	C	-0.348699	-0.504695	0.035341
H268	H	-0.370539	-0.481437	0.049581
H269	H	-0.310711	-0.533017	0.058191
H270	H	-0.352412	-0.475449	-0.001588
H271	H	-0.099376	-0.075038	0.229168
O272	O	-0.095877	-0.206610	0.360923
C273	C	-0.120713	-0.194634	0.389145
H274	H	-0.158389	-0.159435	0.366900
H275	H	-0.119364	-0.231107	0.417054
H276	H	-0.104469	-0.183679	0.406302
H277	H	-0.099372	-0.452898	0.229148
O278	O	-0.499459	-0.534581	0.035114
C279	C	-0.544742	-0.504695	0.035342
H280	H	-0.556096	-0.462137	0.020342
H281	H	-0.569621	-0.503430	0.013366
H282	H	-0.545126	-0.524350	0.072499
O283	O	0.113298	0.223793	-0.479001
C284	C	0.110976	0.195312	-0.434472
H285	H	0.123046	0.153721	-0.423800
H286	H	0.134351	0.191351	-0.408434
H287	H	0.073654	0.217834	-0.435174
O288	O	0.154252	-0.456541	0.225544
C289	C	0.154448	-0.426631	0.180250
H290	H	0.168698	-0.403381	0.178828
H291	H	0.177289	-0.454949	0.170586
H292	H	0.117519	-0.397376	0.154711
O293	O	0.154216	-0.321319	0.225534
C294	C	0.154449	-0.306170	0.180253
H295	H	0.139467	-0.322402	0.168909
H296	H	0.132461	-0.260592	0.155365
H297	H	0.191605	-0.323265	0.179869
H298	H	-0.647332	0.142401	-0.444230
H299	H	0.113022	0.220750	-0.607622
H300	H	-0.731797	0.595663	-0.482796
O301	O	-0.095800	-0.071315	-0.024547
C302	C	-0.082941	-0.055995	-0.064749
H303	H	-0.106140	-0.050365	-0.092322
H304	H	-0.087095	-0.016733	-0.078608
H305	H	-0.045190	-0.088498	-0.055827
H306	H	0.106637	0.142110	-0.568432
O307	O	0.154201	-0.456519	0.360905
C308	C	0.154417	-0.426627	0.376291
H309	H	0.139440	-0.384077	0.345071
H310	H	0.132417	-0.425341	0.399883
H311	H	0.191568	-0.446292	0.396359
H312	H	0.106619	-0.078217	-0.568789
H313	H	-0.387416	0.721084	-0.608218
O314	O	-0.231125	-0.071417	0.225668
C315	C	-0.246503	-0.101328	0.255776
H316	H	-0.224668	-0.124587	0.293284
H317	H	-0.284494	-0.073009	0.250291
H318	H	-0.242782	-0.130575	0.248101
H319	H	0.094785	-0.121682	-0.374387
H320	H	-0.223883	-0.328432	0.229146
H321	H	0.094791	0.002793	-0.498893
O322	O	-0.390516	-0.120916	-0.614781
C323	C	-0.402069	-0.068642	-0.645092
H324	H	-0.377715	-0.064148	-0.629272
H325	H	-0.398415	-0.061226	-0.679826
H326	H	-0.439418	-0.038280	-0.650690
H327	H	0.094825	0.002760	-0.374372
O328	O	0.106343	-0.206544	-0.226792
C329	C	0.108667	-0.253383	-0.195983
H330	H	0.096586	-0.251982	-0.166455
H331	H	0.085300	-0.256049	-0.215401
H332	H	0.145991	-0.289991	-0.181182
H333	H	-0.732075	0.720493	-0.607626
O334	O	0.113238	-0.120292	-0.134812
C335	C	0.110936	-0.073466	-0.165615
H336	H	0.093853	-0.056428	-0.202872
H337	H	0.089585	-0.042528	-0.158048
H338	H	0.147506	-0.083576	-0.160833
H339	H	-0.647028	0.674924	-0.568431
H340	H	-0.495829	-0.406511	0.035012
O341	O	0.106250	-0.070806	-0.227193
C342	C	0.064334	-0.029001	-0.264887
H343	H	0.037517	-0.038460	-0.258103
H344	H	0.050904	0.010172	-0.269034
H345	H	0.070687	-0.024910	-0.298005
H346	H	0.106623	0.141841	-0.443588
H347	H	-0.387425	-0.278978	0.016792
O348	O	0.113299	-0.120293	-0.615351
C349	C	0.110983	-0.073460	-0.631390
H350	H	0.123048	-0.074859	-0.600457
H351	H	0.134366	-0.070807	-0.653458
H352	H	0.073664	-0.036846	-0.653224
H353	H	-0.495826	0.593550	-0.498882
H354	H	0.113006	-0.248593	-0.483685
H355	H	-0.301784	-0.449335	0.023157
O356	O	0.106375	-0.206549	-0.437098
C357	C	0.108673	-0.253371	-0.421064
H358	H	0.125758	-0.270409	-0.441278
H359	H	0.130019	-0.284311	-0.382548
H360	H	0.072101	-0.243256	-0.426402
H361	H	0.113009	-0.248624	-0.138135
H362	H	-0.262587	-0.403497	0.016771
O363	O	-0.499453	0.465458	-0.370889
C364	C	-0.544749	0.495373	-0.401000
H365	H	-0.546173	0.518626	-0.438507
H366	H	-0.554418	0.467058	-0.395514
H367	H	-0.570282	0.524625	-0.393328
O368	O	-0.433732	-0.321324	0.023430
C369	C	-0.449928	-0.274472	0.021133
H370	H	-0.429799	-0.257305	0.004045
H371	H	-0.488448	-0.243633	-0.000210
H372	H	-0.444634	-0.284589	0.057707
H373	H	-0.387422	0.251343	-0.138417
H374	H	-0.426614	0.329984	-0.223458
H375	H	-0.646757	0.550094	-0.443598
H376	H	-0.646754	-0.324820	0.023190
O377	O	-0.433710	0.678713	-0.572519
C378	C	-0.449910	0.725580	-0.617081
H379	H	-0.419064	0.724312	-0.627880
H380	H	-0.471995	0.728148	-0.643029
H381	H	-0.471770	0.762177	-0.616369
H382	H	-0.262576	0.596543	-0.483644
H383	H	-0.301770	0.550701	-0.444180
O384	O	-0.433383	-0.071127	-0.572172
C385	C	-0.433362	-0.029245	-0.576381
H386	H	-0.397078	-0.038705	-0.573619
H387	H	-0.459056	0.009861	-0.611483
H388	H	-0.443936	-0.025024	-0.547447
O389	O	-0.255470	-0.752310	0.016547
C390	C	-0.239276	-0.723941	0.018838
H391	H	-0.259405	-0.703734	0.035925
H392	H	-0.200755	-0.752947	0.040180
H393	H	-0.244572	-0.692202	-0.017737
O394	O	-0.298048	0.333124	-0.226781
C395	C	-0.286505	0.351805	-0.204715
H396	H	-0.285486	0.330119	-0.167177
H397	H	-0.250996	0.343665	-0.205419
H398	H	-0.313697	0.396735	-0.223705
O399	O	-0.735403	-0.271602	0.016518
C400	C	-0.704596	-0.257883	0.018836
H401	H	-0.675064	-0.276737	0.006765
H402	H	-0.724012	-0.212445	-0.004541
H403	H	-0.689801	-0.273373	0.056158
O404	O	-0.735795	-0.406915	0.016584
C405	C	-0.752337	-0.419586	0.054442
H406	H	-0.755772	-0.394412	0.067216
H407	H	-0.787709	-0.410674	0.042997
H408	H	-0.726909	-0.463917	0.083727
O409	O	-0.390584	-0.121022	-0.134460
C410	C	-0.431450	-0.119182	-0.135311
H411	H	-0.427586	-0.149943	-0.140857
H412	H	-0.437637	-0.128699	-0.100901
H413	H	-0.462172	-0.077418	-0.164862
O414	O	-0.255500	0.247661	-0.134371
C415	C	-0.255602	0.251897	-0.096686
H416	H	-0.287121	0.255232	-0.086204
H417	H	-0.222550	0.214791	-0.066069
H418	H	-0.257217	0.289091	-0.107311
H419	H	-0.647026	-0.449354	0.023185
H420	H	-0.262268	-0.248920	-0.138435
O421	O	-0.298132	-0.666850	0.023469
C422	C	-0.326903	-0.623916	0.026933
H423	H	-0.354055	-0.628656	0.042009
H424	H	-0.304927	-0.623905	0.050614
H425	H	-0.344990	-0.584470	-0.009021
O426	O	-0.433742	-0.666630	0.023409
C427	C	-0.464053	-0.647858	-0.017337
H428	H	-0.443471	-0.669578	-0.033190
H429	H	-0.491488	-0.655872	-0.008478
H430	H	-0.481711	-0.602947	-0.043290
O431	O	-0.391075	-0.752160	0.016619
C432	C	-0.365972	-0.806545	0.054464
H433	H	-0.342716	-0.814010	0.083402
H434	H	-0.391234	-0.816814	0.067814
H435	H	-0.343667	-0.832786	0.042779
O436	O	-0.499658	0.006784	-0.370857
C437	C	-0.474816	0.022126	-0.357980
H438	H	-0.452843	0.027740	-0.381146
H439	H	-0.500259	0.061402	-0.362168
H440	H	-0.451259	-0.010355	-0.320215
O441	O	-0.499632	0.006769	-0.506177
C442	C	-0.474785	0.022136	-0.534379
H443	H	-0.437107	-0.002597	-0.512126
H444	H	-0.476146	0.014957	-0.562316
H445	H	-0.491012	0.066473	-0.551500
H446	H	-0.371622	-0.121391	-0.374409
H447	H	-0.301729	-0.203089	-0.443614
O448	O	-0.297985	-0.206568	-0.227103
C449	C	-0.253412	-0.253414	-0.196434
H450	H	-0.253330	-0.270592	-0.159133
H451	H	-0.243896	-0.284248	-0.204116
H452	H	-0.226966	-0.243286	-0.201254
H453	H	-0.262264	-0.248919	-0.482808
O454	O	-0.735710	0.224088	-0.615370
C455	C	-0.704902	0.195607	-0.631410
H456	H	-0.675368	0.154017	-0.600478
H457	H	-0.724316	0.191642	-0.653480
H458	H	-0.690111	0.218130	-0.653242
H459	H	-0.732378	0.221040	-0.483702
H460	H	-0.426314	-0.078564	-0.223203
