data_functionalizedCrystal
_audit_creation_method	'MofGen! by Chris Wilmer'
_symmetry_space_group_name_H-M	'P1'
_symmetry_Int_Tables_number	1
_symmetry_cell_setting	triclinic
loop_
_symmetry_equiv_pos_as_xyz
  x,y,z
_cell_length_a	9.065215
_cell_length_b	14.044190
_cell_length_c	8.140239
_cell_angle_alpha	89.991557
_cell_angle_beta	89.997810
_cell_angle_gamma	89.103237
loop_
_atom_site_label
_atom_site_type_symbol
_atom_site_fract_x
_atom_site_fract_y
_atom_site_fract_z
O1	O	1.975824	0.139128	-0.136616
O2	O	1.547804	0.150544	-0.136625
O3	O	1.755384	0.006796	-0.136588
O4	O	1.768244	0.282876	-0.136653
O5	O	1.755372	0.006794	0.136639
O6	O	1.547792	0.150542	0.136602
O7	O	1.975812	0.139126	0.136611
Zn8	Zn	1.761800	0.144834	0.179987
Zn9	Zn	1.761816	0.144836	-0.180001
O10	O	1.768232	0.282874	0.136574
C11	C	1.492690	0.149446	-0.000012
C12	C	1.328483	0.146168	-0.000014
C13	C	1.749752	-0.028568	0.000030
C14	C	1.732971	-0.133938	0.000044
C15	C	1.821307	-0.383466	-0.000019
C16	C	1.702315	-0.326858	-0.000010
C17	C	1.719376	-0.219507	0.000020
C18	C	1.804249	-0.490827	-0.000048
C19	C	2.030926	0.140224	-0.000005
C20	C	2.195133	0.143502	-0.000014
C21	C	1.773864	0.318238	-0.000048
C22	C	1.790645	0.423608	-0.000072
N23	N	1.761799	0.144832	0.425670
N24	N	1.761828	0.144831	-0.425684
H25	H	1.587630	-0.359017	-0.000022
Br26	Br	2.012447	-0.329868	0.000008
