data_functionalizedCrystal
_audit_creation_method	'MofGen! by Chris Wilmer'
_symmetry_space_group_name_H-M	'P1'
_symmetry_Int_Tables_number	1
_symmetry_cell_setting	triclinic
loop_
_symmetry_equiv_pos_as_xyz
  x,y,z
_cell_length_a	12.759401
_cell_length_b	21.295418
_cell_length_c	12.759393
_cell_angle_alpha	89.962313
_cell_angle_beta	90.022728
_cell_angle_gamma	89.973507
loop_
_atom_site_label
_atom_site_type_symbol
_atom_site_fract_x
_atom_site_fract_y
_atom_site_fract_z
Zn1	Zn	-1.606151	-0.250586	-0.594088
Zn2	Zn	-1.606010	-0.355870	-0.418390
Zn3	Zn	-1.430457	-0.250617	-0.418411
Zn4	Zn	-1.430403	-0.355820	-0.594015
O5	O	-1.518255	-0.303223	-0.506226
O6	O	-1.753153	-0.264560	-0.570803
O7	O	-1.582686	-0.341943	-0.271372
O8	O	-1.453844	-0.162524	-0.441754
O9	O	-1.753050	-0.341912	-0.441718
O10	O	-1.582926	-0.162501	-0.570823
O11	O	-1.453707	-0.264614	-0.271387
O12	O	-1.283428	-0.264565	-0.441684
O13	O	-1.453753	-0.341826	-0.741046
O14	O	-1.283389	-0.341856	-0.570699
O15	O	-1.582874	-0.264511	-0.741099
O16	O	-1.582634	-0.443953	-0.441648
O17	O	-1.453616	-0.443916	-0.570679
C18	C	-1.245288	-0.303209	-0.506186
C19	C	-1.128511	-0.303218	-0.506194
C20	C	-1.518132	-0.466775	-0.506176
C21	C	-1.518176	-0.536743	-0.506190
C22	C	-0.963861	-0.343443	-0.438918
C23	C	-1.073585	-0.343432	-0.438894
C24	C	-1.073707	-0.263006	-0.573516
C25	C	-0.963985	-0.263014	-0.573535
C26	C	-0.963792	-0.389878	-0.361198
C27	C	-1.073516	-0.389868	-0.361173
C28	C	-1.518323	-0.303159	-0.780260
C29	C	-1.518352	-0.303132	-0.897036
C30	C	-0.792288	-0.303236	-0.506255
C31	C	-0.909065	-0.303236	-0.506237
C32	C	-1.585687	-1.036199	-0.439209
C33	C	-1.585647	-0.970457	-0.439184
C34	C	-1.518403	-0.937582	-0.506300
C35	C	-1.451175	-0.970456	-0.573426
C36	C	-1.451209	-1.036197	-0.573441
N37	N	-1.510237	-0.834322	-0.598233
N38	N	-1.510210	-0.771871	-0.598215
C39	C	-1.518294	-0.739508	-0.506255
N40	N	-1.526425	-0.771955	-0.414312
N41	N	-1.526457	-0.834412	-0.414331
C42	C	-1.518358	-0.866297	-0.506290
C43	C	-1.585469	-0.635357	-0.439101
C44	C	-1.585421	-0.569613	-0.439075
C45	C	-1.450955	-0.569613	-0.573326
C46	C	-1.450997	-0.635356	-0.573343
C47	C	-1.518259	-0.668223	-0.506232
C48	C	-1.518407	-0.139033	-0.506299
C49	C	-1.518472	-0.069065	-0.506331
C50	C	-1.451222	-0.262859	-0.951912
C51	C	-1.451254	-0.262841	-1.061637
C52	C	-1.585556	-0.343369	-1.061599
C53	C	-1.585518	-0.343390	-0.951877
C54	C	-1.373687	-0.216365	-0.951935
C55	C	-1.373719	-0.216346	-1.061659
C56	C	-1.518248	-0.303242	-0.233259
C57	C	-1.518422	-0.303092	-0.116483
H58	H	-0.919374	-0.230269	-0.628345
C59	C	-1.377902	-0.671077	-0.646057
C60	C	-1.310600	-0.708869	-0.586513
C61	C	-1.243238	-0.741778	-0.653462
H62	H	-1.417960	-0.696732	-0.691898
H63	H	-1.337786	-0.642105	-0.686010
H64	H	-1.350713	-0.737837	-0.546578
H65	H	-1.270520	-0.683229	-0.540674
H66	H	-1.203122	-0.712806	-0.693415
H67	H	-1.283305	-0.767430	-0.699300
H68	H	-1.197560	-0.767419	-0.613071
H69	H	-0.929749	-0.436212	-0.390211
H70	H	-1.118437	-0.230258	-0.628307
H71	H	-1.103280	-0.438634	-0.382818
C72	C	-0.924232	-0.372352	-0.252709
C73	C	-1.009727	-0.361624	-0.186327
C74	C	-0.973326	-0.345470	-0.086387
H75	H	-0.882861	-0.405671	-0.225444
H76	H	-0.882926	-0.335342	-0.257210
H77	H	-1.051016	-0.398630	-0.181823
H78	H	-1.051107	-0.328303	-0.213558
H79	H	-0.932020	-0.308459	-0.090888
H80	H	-0.931955	-0.378791	-0.059132
H81	H	-1.031328	-0.338183	-0.041337
C82	C	-1.658743	-1.071770	-0.366224
C83	C	-1.717579	-1.028911	-0.307415
C84	C	-1.784877	-1.061657	-0.240158
H85	H	-1.704602	-1.097379	-0.406345
H86	H	-1.618617	-1.097441	-0.320353
H87	H	-1.757702	-1.003251	-0.353279
H88	H	-1.671748	-1.003301	-0.267272
H89	H	-1.744751	-1.087328	-0.194288
H90	H	-1.830729	-1.087265	-0.280289
H91	H	-1.824798	-1.032583	-0.200242
C92	C	-1.658279	-0.387097	-0.892106
C93	C	-1.643852	-0.378514	-0.784278
C94	C	-1.710853	-0.418774	-0.729185
H95	H	-1.728930	-0.377932	-0.909968
H96	H	-1.642847	-0.429400	-0.910006
H97	H	-1.659292	-0.336221	-0.766386
H98	H	-1.573215	-0.387683	-0.766384
H99	H	-1.695421	-0.461077	-0.747085
H100	H	-1.781500	-0.409606	-0.747056
H101	H	-1.701067	-0.412960	-0.656018
H102	H	-1.640236	-0.662119	-0.384454
H103	H	-1.107511	-0.372351	-0.283921
H104	H	-1.640383	-0.943693	-0.384524
H105	H	-1.292293	-0.229419	-0.922148
C106	C	-1.658442	-0.387003	-1.121332
C107	C	-1.644126	-0.378356	-1.229168
C108	C	-1.711264	-0.418535	-1.284224
H109	H	-1.643089	-0.429327	-1.103451
H110	H	-1.729058	-0.377791	-1.103421
H111	H	-1.573526	-0.387573	-1.247072
H112	H	-1.659487	-0.336041	-1.247080
H113	H	-1.781880	-0.409322	-1.266313
H114	H	-1.695905	-0.460855	-1.266334
H115	H	-1.701566	-0.412669	-1.357396
C116	C	-1.378107	-1.071917	-0.646152
C117	C	-1.310809	-1.109711	-0.586608
C118	C	-1.243446	-1.142621	-0.653556
H119	H	-1.418164	-1.097571	-0.691997
H120	H	-1.337987	-1.042946	-0.686103
H121	H	-1.350924	-1.138680	-0.546676
H122	H	-1.270729	-1.084073	-0.540767
H123	H	-1.203327	-1.113649	-0.693506
H124	H	-1.283512	-1.168271	-0.699397
H125	H	-1.197771	-1.168263	-0.613165
H126	H	-1.402868	-0.170063	-0.917930
H127	H	-1.296415	-0.233796	-1.095675
H128	H	-1.396422	-0.943686	-0.628071
C129	C	-1.378059	-0.533816	-0.646156
C130	C	-1.392430	-0.469207	-0.631794
C131	C	-1.325302	-0.436208	-0.698875
H132	H	-1.307441	-0.544555	-0.630779
H133	H	-1.393410	-0.544512	-0.716787
H134	H	-1.377072	-0.458515	-0.561178
H135	H	-1.463034	-0.458449	-0.647178
H136	H	-1.340652	-0.446904	-0.769507
H137	H	-1.254688	-0.446952	-0.683493
H138	H	-1.335049	-0.392367	-0.689147
H139	H	-1.395554	-0.167585	-1.091467
C140	C	-1.658518	-0.534041	-0.366155
C141	C	-1.717447	-0.576900	-0.307412
C142	C	-1.784806	-0.544154	-0.240238
H143	H	-1.618465	-0.508435	-0.320233
H144	H	-1.704307	-0.508367	-0.406367
H145	H	-1.671664	-0.602563	-0.267203
H146	H	-1.757522	-0.602507	-0.353307
H147	H	-1.830596	-0.518479	-0.280450
H148	H	-1.744744	-0.518549	-0.194323
H149	H	-1.824804	-0.573228	-0.200380
