data_functionalizedCrystal
_audit_creation_method	'MofGen! by Chris Wilmer'
_symmetry_space_group_name_H-M	'P1'
_symmetry_Int_Tables_number	1
_symmetry_cell_setting	triclinic
loop_
_symmetry_equiv_pos_as_xyz
  x,y,z
_cell_length_a	12.645331
_cell_length_b	17.077402
_cell_length_c	12.645324
_cell_angle_alpha	90.037373
_cell_angle_beta	89.978020
_cell_angle_gamma	89.978138
loop_
_atom_site_label
_atom_site_type_symbol
_atom_site_fract_x
_atom_site_fract_y
_atom_site_fract_z
Zn1	Zn	1.620686	0.312471	-0.599404
Zn2	Zn	1.954019	0.645804	-0.266071
Zn3	Zn	2.287352	0.979137	0.067262
Zn4	Zn	1.620553	0.443763	-0.422127
Zn5	Zn	1.953887	0.777096	-0.088793
Zn6	Zn	2.287220	1.110430	0.244540
Zn7	Zn	1.443402	0.312513	-0.422149
Zn8	Zn	1.776736	0.645846	-0.088815
Zn9	Zn	2.110069	0.979179	0.244518
Zn10	Zn	1.443366	0.443696	-0.599342
Zn11	Zn	1.776699	0.777029	-0.266009
Zn12	Zn	2.110033	1.110363	0.067325
O13	O	1.532002	0.378111	-0.510755
O14	O	1.865335	0.711444	-0.177422
O15	O	2.198669	1.044777	0.155911
O16	O	1.769015	0.329897	-0.575905
O17	O	2.102349	0.663231	-0.242571
O18	O	2.435682	0.996564	0.090762
O19	O	1.597014	0.426398	-0.273782
O20	O	1.930347	0.759731	0.059551
O21	O	2.263681	1.093065	0.392885
O22	O	1.466990	0.202660	-0.445697
O23	O	1.800323	0.535994	-0.112364
O24	O	2.133657	0.869327	0.220970
O25	O	1.768918	0.426357	-0.445660
O26	O	2.102252	0.759690	-0.112326
O27	O	2.435585	1.093024	0.221007
O28	O	1.597239	0.202629	-0.575926
O29	O	1.930573	0.535963	-0.242593
O30	O	2.263906	0.869296	0.090741
O31	O	1.466862	0.329969	-0.273798
O32	O	1.800195	0.663302	0.059535
O33	O	2.133529	0.996636	0.392868
O34	O	1.295050	0.329904	-0.445637
O35	O	1.628384	0.663238	-0.112303
O36	O	1.961717	0.996571	0.221030
O37	O	1.466928	0.426243	-0.747698
O38	O	1.800261	0.759577	-0.414364
O39	O	2.133595	1.092910	-0.081031
O40	O	1.295024	0.426284	-0.575820
O41	O	1.628357	0.759617	-0.242487
O42	O	1.961690	1.092951	0.090847
O43	O	1.597204	0.329832	-0.747743
O44	O	1.930537	0.663166	-0.414410
O45	O	2.263871	0.996499	-0.081077
O46	O	1.596979	0.553601	-0.445599
O47	O	1.930312	0.886934	-0.112266
O48	O	2.263645	1.220268	0.221067
O49	O	1.466800	0.553552	-0.575799
O50	O	1.800133	0.886885	-0.242465
O51	O	2.133466	1.220219	0.090868
C52	C	1.531900	0.582059	-0.510713
C53	C	1.865233	0.915392	-0.177380
C54	C	2.198566	1.248725	0.155954
C55	C	1.531953	0.669308	-0.510730
C56	C	1.865286	1.002642	-0.177397
C57	C	2.198619	1.335975	0.155936
C58	C	1.256572	0.378092	-0.510725
C59	C	1.589906	0.711425	-0.177391
C60	C	1.923239	1.044759	0.155942
C61	C	1.138742	0.378103	-0.510737
C62	C	1.472075	0.711436	-0.177403
C63	C	1.805409	1.044770	0.155930
C64	C	1.532077	0.378026	-0.787261
C65	C	1.865410	0.711359	-0.453927
C66	C	2.198743	1.044692	-0.120594
C67	C	1.532109	0.377990	-0.905091
C68	C	1.865442	0.711323	-0.571758
C69	C	2.198775	1.044656	-0.238424
C70	C	0.971160	0.317191	-0.429290
C71	C	1.304493	0.650525	-0.095957
C72	C	1.637826	0.983858	0.237376
C73	C	1.093719	0.317349	-0.428931
C74	C	1.427053	0.650682	-0.095598
C75	C	1.760386	0.984016	0.237735
C76	C	1.094212	0.460797	-0.480211
C77	C	1.427545	0.794130	-0.146877
C78	C	1.760879	1.127464	0.186456
C79	C	0.971614	0.460464	-0.479655
C80	C	1.304947	0.793798	-0.146322
C81	C	1.638280	1.127131	0.187012
C82	C	0.971594	0.357107	-0.623024
C83	C	1.304927	0.690441	-0.289690
C84	C	1.638261	1.023774	0.043643
C85	C	1.094200	0.355260	-0.622400
C86	C	1.427533	0.688593	-0.289067
C87	C	1.760867	1.021927	0.044267
C88	C	1.808507	0.378130	-0.510787
C89	C	2.141840	0.711463	-0.177453
C90	C	2.475174	1.044797	0.155880
C91	C	1.926337	0.378138	-0.510800
C92	C	2.259671	0.711472	-0.177467
C93	C	2.593004	1.044805	0.155867
C94	C	1.532134	0.173366	-0.510821
C95	C	1.865467	0.506700	-0.177488
C96	C	2.198800	0.840033	0.155846
C97	C	1.532190	0.086117	-0.510849
C98	C	1.865523	0.419450	-0.177516
C99	C	2.198856	0.752783	0.155818
C100	C	1.599806	0.710298	-0.443008
C101	C	1.933140	1.043631	-0.109675
C102	C	2.266473	1.376965	0.223658
C103	C	1.599858	0.792278	-0.443035
C104	C	1.933191	1.125612	-0.109702
C105	C	2.266525	1.458945	0.223631
C106	C	1.532050	0.833268	-0.510780
C107	C	1.865384	1.166601	-0.177447
C108	C	2.198717	1.499934	0.155887
C109	C	1.464194	0.792272	-0.578509
C110	C	1.797527	1.125606	-0.245176
C111	C	2.130861	1.458939	0.088157
C112	C	1.464148	0.710293	-0.578487
C113	C	1.797482	1.043627	-0.245154
C114	C	2.130815	1.376960	0.088180
C115	C	1.464292	0.963142	-0.578550
C116	C	1.797626	1.296476	-0.245216
C117	C	2.130959	1.629809	0.088117
C118	C	1.464336	1.045127	-0.578571
C119	C	1.797670	1.378460	-0.245238
C120	C	2.131003	1.711794	0.088096
C121	C	1.600002	1.045127	-0.443098
C122	C	1.933335	1.378461	-0.109765
C123	C	2.266669	1.711794	0.223569
C124	C	1.599956	0.963148	-0.443076
C125	C	1.933290	1.296482	-0.109742
C126	C	2.266623	1.629815	0.223591
C127	C	1.532098	0.922159	-0.510804
C128	C	1.865432	1.255492	-0.177471
C129	C	2.198765	1.588825	0.155863
C130	C	1.614083	0.317324	-0.950002
C131	C	1.947417	0.650658	-0.616668
C132	C	2.280750	0.983991	-0.283335
C133	C	1.614435	0.317483	-1.072562
C134	C	1.947769	0.650816	-0.739228
C135	C	2.281102	0.984150	-0.405895
C136	C	1.562054	0.460752	-1.072961
C137	C	1.895388	0.794085	-0.739627
C138	C	2.228721	1.127419	-0.406294
C139	C	1.562618	0.460422	-0.950363
C140	C	1.895952	0.793755	-0.617030
C141	C	2.229285	1.127088	-0.283696
C142	C	1.420046	0.356572	-0.950264
C143	C	1.753379	0.689905	-0.616931
C144	C	2.086713	1.023239	-0.283598
C145	C	1.420678	0.354726	-1.072872
C146	C	1.754011	0.688060	-0.739538
C147	C	2.087344	1.021393	-0.406205
C148	C	1.531988	0.378139	-0.235326
C149	C	1.865322	0.711472	0.098008
C150	C	2.198655	1.044805	0.431341
C151	C	1.532162	0.377954	-0.117496
C152	C	1.865495	0.711287	0.215837
C153	C	2.198829	1.044620	0.549171
H154	H	1.123827	0.256028	-0.448066
H155	H	1.457161	0.589362	-0.114733
H156	H	1.790494	0.922695	0.218601
H157	H	1.409141	1.078498	-0.633754
H158	H	1.742474	1.411832	-0.300421
H159	H	2.075808	1.745165	0.032912
H160	H	1.408897	0.676920	-0.633634
H161	H	1.742230	1.010254	-0.300301
H162	H	2.075563	1.343587	0.033032
H163	H	1.408988	0.825652	-0.633673
H164	H	1.742322	1.158986	-0.300339
H165	H	2.075655	1.492319	0.032994
H166	H	0.941963	0.507412	-0.536434
H167	H	1.275296	0.840745	-0.203100
H168	H	1.608629	1.174079	0.130233
H169	H	1.124852	0.396412	-0.686380
H170	H	1.458185	0.729745	-0.353047
H171	H	1.791519	1.063079	-0.019713
H172	H	1.697488	0.331671	-1.101901
H173	H	2.030821	0.665005	-0.768568
H174	H	2.364154	0.998338	-0.435235
H175	H	1.356381	0.395658	-1.103455
H176	H	1.689715	0.728991	-0.770122
H177	H	2.023048	1.062324	-0.436789
H178	H	1.409038	0.929771	-0.633705
H179	H	1.742372	1.263105	-0.300372
H180	H	2.075705	1.596438	0.032962
H181	H	1.123375	0.507421	-0.537715
H182	H	1.456708	0.840754	-0.204382
H183	H	1.790042	1.174088	0.128952
H184	H	1.655165	0.929775	-0.387908
H185	H	1.988498	1.263108	-0.054574
H186	H	2.321831	1.596442	0.278759
H187	H	1.644524	0.478537	-0.921776
H188	H	1.977857	0.811870	-0.588443
H189	H	2.311190	1.145203	-0.255109
H190	H	1.655018	0.676930	-0.387838
H191	H	1.988352	1.010263	-0.054505
H192	H	2.321685	1.343597	0.278828
H193	H	1.655110	0.825649	-0.387888
H194	H	1.988444	1.158982	-0.054555
H195	H	2.321777	1.492315	0.278778
H196	H	0.941703	0.255686	-0.448220
H197	H	1.275036	0.589020	-0.114886
H198	H	1.608369	0.922353	0.218447
H199	H	0.940311	0.330938	-0.346617
H200	H	1.273644	0.664272	-0.013284
H201	H	1.606978	0.997605	0.320049
H202	H	1.398127	0.293793	-1.101984
H203	H	1.731461	0.627127	-0.768651
H204	H	2.064794	0.960460	-0.435317
H205	H	1.655258	1.078505	-0.387955
H206	H	1.988591	1.411838	-0.054621
H207	H	2.321925	1.745172	0.278712
H208	H	1.696649	0.331351	-0.919205
H209	H	2.029982	0.664684	-0.585872
H210	H	2.363316	0.998017	-0.252538
H211	H	1.505463	0.507161	-0.920649
H212	H	1.838796	0.840495	-0.587315
H213	H	2.172130	1.173828	-0.253982
H214	H	0.942967	0.478298	-0.397614
H215	H	1.276300	0.811631	-0.064280
H216	H	1.609634	1.144965	0.269053
H217	H	0.942609	0.401498	-0.683756
H218	H	1.275942	0.734832	-0.350422
H219	H	1.609276	1.068165	-0.017089
H220	H	1.358975	0.400754	-0.921215
H221	H	1.692309	0.734087	-0.587882
H222	H	2.025642	1.067420	-0.254549
H223	H	1.122997	0.331250	-0.345769
H224	H	1.456330	0.664583	-0.012436
H225	H	1.789663	0.997917	0.320897
H226	H	1.123311	0.294407	-0.645418
H227	H	1.456645	0.627740	-0.312085
H228	H	1.789978	0.961073	0.021248
H229	H	1.595758	0.256099	-1.102676
H230	H	1.929092	0.589432	-0.769343
H231	H	2.262425	0.922766	-0.436010
H232	H	1.595627	0.255755	-0.920554
H233	H	1.928960	0.589088	-0.587221
H234	H	2.262293	0.922421	-0.253887
H235	H	0.940704	0.297859	-0.650783
H236	H	1.274038	0.631192	-0.317450
H237	H	1.607371	0.964526	0.015884
H238	H	1.124866	0.478937	-0.399050
H239	H	1.458200	0.812270	-0.065717
H240	H	1.791533	1.145604	0.267617
H241	H	1.504192	0.507177	-1.102061
H242	H	1.837525	0.840511	-0.768728
H243	H	2.170859	1.173844	-0.435395
H244	H	1.643060	0.479181	-1.103699
H245	H	1.976393	0.812515	-0.770365
H246	H	2.309726	1.145848	-0.437032
H247	H	1.392733	0.297237	-0.919355
H248	H	1.726067	0.630570	-0.586022
H249	H	2.059400	0.963903	-0.252688
