data_functionalizedCrystal
_audit_creation_method	'MofGen! by Chris Wilmer'
_symmetry_space_group_name_H-M	'P1'
_symmetry_Int_Tables_number	1
_symmetry_cell_setting	triclinic
loop_
_symmetry_equiv_pos_as_xyz
  x,y,z
_cell_length_a	27.440280
_cell_length_b	20.016444
_cell_length_c	20.016444
_cell_angle_alpha	90.001125
_cell_angle_beta	60.005090
_cell_angle_gamma	120.002171
loop_
_atom_site_label
_atom_site_type_symbol
_atom_site_fract_x
_atom_site_fract_y
_atom_site_fract_z
Zr1	Zr	0.533400	0.087702	0.643680
O2	O	0.635064	0.194372	0.537019
O3	O	0.431737	0.055004	0.676366
O4	O	0.533404	0.194382	0.676376
O5	O	0.533394	-0.054951	0.537014
O6	O	0.533405	0.194388	0.786318
O7	O	0.533397	0.054994	0.537008
O8	O	0.351542	-0.054934	0.786299
O9	O	0.715256	0.194371	0.537033
O10	O	0.473553	0.041061	0.772369
O11	O	0.473549	-0.040994	0.690325
O12	O	0.593248	0.123105	0.690337
O13	O	0.593244	0.041050	0.608293
Zr14	Zr	0.533396	-0.087638	0.819034
Zr15	Zr	0.533402	0.087712	0.819025
Zr16	Zr	0.533394	-0.087647	0.643690
Zr17	Zr	0.661297	0.087700	0.643703
Zr18	Zr	0.405498	-0.087635	0.819011
O19	O	0.635058	-0.054939	0.786349
O20	O	0.635067	0.194386	0.786336
O21	O	0.635055	-0.054953	0.537032
O22	O	0.431731	-0.194307	0.925696
O23	O	0.431740	0.055018	0.925683
O24	O	0.431729	-0.194321	0.676379
O25	O	0.533402	0.055016	0.925700
O26	O	0.533392	-0.194317	0.786338
O27	O	0.533390	-0.194323	0.676397
O28	O	0.533398	-0.054929	0.925706
O29	O	0.715258	0.194379	0.676408
O30	O	0.351537	-0.194314	0.786306
O31	O	0.351539	-0.194306	0.925682
O32	O	0.351544	-0.054926	0.925674
O33	O	0.715252	0.054991	0.537040
O34	O	0.715253	0.054999	0.676416
O35	O	0.473547	-0.123041	0.772377
O36	O	0.473551	-0.040985	0.854421
O37	O	0.593246	0.041059	0.772390
O38	O	0.593243	-0.040996	0.690346
C39	C	0.373417	0.000035	0.731329
C40	C	0.319121	0.000036	0.731319
C41	C	0.533405	0.219368	0.731346
C42	C	0.533408	0.293809	0.731342
C43	C	0.533390	-0.219303	0.731369
C44	C	0.533387	-0.293744	0.731373
C45	C	-0.017619	0.042857	0.774206
C46	C	-0.068643	0.042855	0.774213
O47	O	-0.095047	0.079257	0.810660
N48	N	-0.094161	0.000025	0.731387
C49	C	-0.068657	-0.042813	0.688556
O50	O	-0.095048	-0.079245	0.652130
C51	C	-0.017638	-0.042815	0.688554
C52	C	0.007883	0.000025	0.731377
C53	C	0.007901	0.085693	0.817026
C54	C	0.058922	0.085696	0.817017
C55	C	0.084424	0.042864	0.774188
C56	C	0.058904	0.000028	0.731368
C57	C	0.007861	-0.085657	0.645729
C58	C	0.058884	-0.085656	0.645731
C59	C	0.084404	-0.042816	0.688554
C60	C	0.135427	-0.042801	0.688530
N61	N	0.160945	0.000029	0.731357
C62	C	0.135443	0.042862	0.774186
C63	C	-0.175802	-0.042807	0.688565
C64	C	-0.226818	-0.042800	0.688562
C65	C	-0.226800	0.042867	0.774221
C66	C	-0.175781	0.042865	0.774219
C67	C	-0.150284	0.000024	0.731392
C68	C	0.242592	0.042866	0.774164
C69	C	0.293620	0.042868	0.774148
C70	C	0.293596	-0.042802	0.688494
C71	C	0.242575	-0.042801	0.688505
C72	C	0.217073	0.000035	0.731346
O73	O	0.161861	-0.079187	0.652105
O74	O	0.161834	0.079278	0.810615
C75	C	0.693378	0.000030	0.731386
C76	C	0.747674	0.000029	0.731395
C77	C	0.533395	0.000020	0.512028
C78	C	0.533394	0.000016	0.437590
C79	C	0.595880	0.507891	0.688536
C80	C	0.595877	0.577833	0.688543
C81	C	0.470911	0.492165	0.774183
C82	C	0.470914	0.422226	0.774181
C83	C	0.533401	0.430092	0.731353
C84	C	0.533394	0.569973	0.731362
C85	C	0.533391	0.645806	0.731369
C86	C	0.533405	0.354254	0.731346
C87	C	0.533401	-0.060532	0.196376
C88	C	0.533398	-0.060540	0.266321
C89	C	0.533393	0.060601	0.266335
C90	C	0.533390	0.060604	0.196395
C91	C	0.533398	0.000038	0.161414
C92	C	0.533397	0.000027	0.301300
C93	C	0.533394	0.000020	0.377138
C94	C	0.533400	0.000044	0.085573
C95	C	0.533400	0.000045	0.950686
C96	C	0.533401	0.000049	1.025124
C97	C	0.373420	0.000047	0.950658
C98	C	0.319124	0.000052	1.025087
C99	C	0.373410	-0.219301	0.731341
C100	C	0.319111	-0.293741	0.731335
C101	C	0.373412	-0.219289	0.950670
C102	C	0.319114	-0.293724	1.025102
C103	C	0.693383	0.219353	0.512045
C104	C	0.747681	0.293789	0.437612
C105	C	0.693376	0.000018	0.512057
C106	C	0.747671	0.000012	0.437628
C107	C	0.693386	0.219366	0.731374
C108	C	0.747684	0.293805	0.731380
C109	C	0.293628	0.042889	1.017208
C110	C	0.242619	0.042910	1.087135
C111	C	0.217104	0.000089	1.164940
C112	C	0.242606	-0.042749	1.172816
C113	C	0.293617	-0.042765	1.102890
C114	C	0.293611	-0.371533	0.774163
C115	C	0.242599	-0.441484	0.774154
C116	C	0.217084	-0.433640	0.731322
C117	C	0.242590	-0.355840	0.688489
C118	C	0.293604	-0.285891	0.688493
C119	C	0.293617	-0.285848	1.102890
C120	C	0.242606	-0.355781	1.172834
C121	C	0.217089	-0.433590	1.164988
C122	C	0.242591	-0.441465	1.087192
C123	C	0.293605	-0.371532	1.017250
C124	C	0.773184	0.285913	0.359825
C125	C	0.824211	0.355846	0.289881
C126	C	0.849731	0.433655	0.297726
C127	C	0.824226	0.441530	0.375522
C128	C	0.773203	0.371597	0.445464
C129	C	0.773173	-0.042817	0.445506
C130	C	0.824196	-0.042819	0.375579
C131	C	0.849713	0.000005	0.297775
C132	C	0.824209	0.042840	0.289898
C133	C	0.773190	0.042846	0.359824
C134	C	0.773183	0.285936	0.774220
C135	C	0.824195	0.355873	0.774241
C136	C	0.849712	0.433679	0.731417
C137	C	0.824208	0.441547	0.688575
C138	C	0.773193	0.371611	0.688559
H139	H	0.314398	0.077757	0.809019
H140	H	0.533399	-0.109862	0.294786
H141	H	0.752439	0.378020	0.508801
H142	H	0.221848	-0.349355	1.236172
H143	H	0.891277	0.490592	0.240768
H144	H	0.752415	0.222588	0.809093
H145	H	0.314370	-0.077672	0.653621
H146	H	0.175550	-0.490527	1.221946
H147	H	0.533386	0.109928	0.167929
H148	H	0.533388	0.109913	0.294822
H149	H	0.752438	0.378030	0.653670
H150	H	0.891255	-0.000007	0.240843
H151	H	0.221862	0.077794	1.080706
H152	H	0.420037	0.485771	0.809052
H153	H	0.221807	-0.504826	1.080817
H154	H	-0.247574	0.077742	0.809096
H155	H	0.845011	0.504890	0.381900
H156	H	0.420034	0.358874	0.809051
H157	H	-0.012859	0.120572	0.851906
H158	H	0.221833	0.077746	0.809050
H159	H	0.314358	-0.377957	0.953914
H160	H	0.175545	-0.490604	0.731326
H161	H	0.314370	-0.077653	1.109316
H162	H	0.752409	0.222563	0.353421
H163	H	0.891252	0.490619	0.731436
H164	H	0.221808	-0.349466	0.653616
H165	H	0.752401	-0.077695	0.508852
H166	H	0.221838	-0.504825	0.809037
H167	H	-0.155005	0.077748	0.809089
H168	H	-0.247584	-0.077674	0.653681
H169	H	0.079696	0.120578	0.851890
H170	H	0.533406	-0.109850	0.167898
H171	H	0.844953	-0.077703	0.382008
H172	H	0.314402	0.077769	0.953863
H173	H	0.314379	-0.377935	0.809042
H174	H	0.314360	-0.222551	0.653620
H175	H	0.844992	0.077705	0.226541
H176	H	0.752428	0.077720	0.353399
H177	H	-0.155041	-0.077688	0.653682
H178	H	0.221824	-0.077612	1.236174
H179	H	0.175567	0.000108	1.221871
H180	H	-0.012909	-0.120543	0.610859
H181	H	0.079641	-0.120542	0.610855
H182	H	0.844969	0.349418	0.226543
H183	H	0.221803	-0.077674	0.653625
H184	H	0.314386	-0.222498	1.109293
H185	H	0.844955	0.349451	0.809127
H186	H	0.844992	0.504906	0.653709
H187	H	0.646753	0.641178	0.653679
H188	H	0.646760	0.514301	0.653663
