data_functionalizedCrystal
_audit_creation_method	'MofGen! by Chris Wilmer'
_symmetry_space_group_name_H-M	'P1'
_symmetry_Int_Tables_number	1
_symmetry_cell_setting	triclinic
loop_
_symmetry_equiv_pos_as_xyz
  x,y,z
_cell_length_a	14.971482
_cell_length_b	10.723024
_cell_length_c	9.798715
_cell_angle_alpha	90.005403
_cell_angle_beta	89.999734
_cell_angle_gamma	84.040239
loop_
_atom_site_label
_atom_site_type_symbol
_atom_site_fract_x
_atom_site_fract_y
_atom_site_fract_z
O1	O	1.187814	0.162596	0.113470
O2	O	0.927518	0.182074	0.113476
O3	O	1.063670	-0.009304	0.113468
O4	O	1.051662	0.353974	0.113478
O5	O	1.063670	-0.009318	-0.113514
O6	O	0.927518	0.182060	-0.113506
O7	O	1.187814	0.162582	-0.113512
Zn8	Zn	1.057666	0.172318	-0.149548
Zn9	Zn	1.057666	0.172337	0.149511
O10	O	1.051662	0.353960	-0.113504
C11	C	0.894188	0.181197	-0.000014
C12	C	0.794877	0.178589	-0.000012
C13	C	0.748226	0.177353	-0.123741
C14	C	0.654914	0.174882	-0.123743
C15	C	0.608255	0.173657	-0.000014
C16	C	0.654913	0.174889	0.123726
C17	C	0.748224	0.177351	0.123726
C18	C	0.460423	0.169762	0.123717
C19	C	0.367106	0.167303	0.123717
C20	C	0.367114	0.167294	-0.123752
C21	C	0.460424	0.169755	-0.123752
C22	C	0.507076	0.170990	-0.000012
C23	C	1.062796	-0.055802	-0.000022
C24	C	1.060182	-0.194329	-0.000017
C25	C	1.136365	-0.270109	-0.000017
C26	C	1.133665	-0.413284	-0.000012
C27	C	1.221143	0.163459	-0.000019
C28	C	1.320455	0.166067	-0.000013
C29	C	1.052536	0.400457	-0.000012
C30	C	1.055150	0.538984	-0.000008
N31	N	1.057672	0.172305	-0.353647
N32	N	1.057667	0.172341	0.353611
C33	C	1.000267	0.252681	0.578579
C34	C	1.000264	0.252701	0.421417
H35	H	0.498411	0.170760	-0.224503
H36	H	0.992959	-0.235447	-0.000006
C37	C	0.933873	0.345628	0.657372
N38	N	0.883862	0.415637	0.716718
C39	C	0.511737	0.171127	0.259837
N40	N	0.550386	0.172164	0.362361
C41	C	0.933864	0.345664	0.342682
N42	N	0.883849	0.415686	0.283376
H43	H	1.106813	0.103519	0.411884
H44	H	1.106819	0.103511	0.588025
C45	C	0.967035	-0.373058	-0.000006
N46	N	0.900666	-0.306799	-0.000002
H47	H	0.616916	0.173883	0.224468
C48	C	1.227184	-0.214566	-0.000029
N49	N	1.295591	-0.172734	-0.000043
H50	H	0.616936	0.173855	-0.224496
C51	C	0.315796	0.165927	-0.259867
N52	N	0.277139	0.164900	-0.362385
C53	C	0.315783	0.165950	0.259825
N54	N	0.277126	0.164929	0.362345
C55	C	0.799542	0.178700	-0.259856
N56	N	0.838192	0.179708	-0.362382
C57	C	1.221776	-0.501249	-0.000013
N58	N	1.288145	-0.567508	-0.000011
C59	C	0.799539	0.178713	0.259838
N60	N	0.838190	0.179736	0.362362
