data_functionalizedCrystal
_audit_creation_method	'MofGen! by Chris Wilmer'
_symmetry_space_group_name_H-M	'P1'
_symmetry_Int_Tables_number	1
_symmetry_cell_setting	triclinic
loop_
_symmetry_equiv_pos_as_xyz
  x,y,z
_cell_length_a	21.295419
_cell_length_b	21.295418
_cell_length_c	11.169409
_cell_angle_alpha	89.960289
_cell_angle_beta	89.976836
_cell_angle_gamma	90.042201
loop_
_atom_site_label
_atom_site_type_symbol
_atom_site_fract_x
_atom_site_fract_y
_atom_site_fract_z
Zn1	Zn	0.962361	-0.250310	-0.678588
Zn2	Zn	0.962271	-0.355598	-0.477880
Zn3	Zn	0.857086	-0.250374	-0.477911
Zn4	Zn	0.857059	-0.355572	-0.678513
O5	O	0.909694	-0.302963	-0.578223
O6	O	1.050438	-0.264260	-0.651983
O7	O	0.948292	-0.341677	-0.309934
O8	O	0.871100	-0.162276	-0.504576
O9	O	1.050373	-0.341615	-0.504523
O10	O	0.948445	-0.162229	-0.652013
O11	O	0.871013	-0.264369	-0.309957
O12	O	0.768993	-0.264344	-0.504503
O13	O	0.871053	-0.341571	-0.846473
O14	O	0.768973	-0.341633	-0.651884
O15	O	0.948418	-0.264235	-0.846528
O16	O	0.948266	-0.443684	-0.504449
O17	O	0.870967	-0.443665	-0.651853
C18	C	0.746143	-0.302993	-0.578189
C19	C	0.676175	-0.303022	-0.578203
C20	C	0.909621	-0.466515	-0.578166
C21	C	0.909647	-0.536483	-0.578181
C22	C	0.950095	-1.035930	-0.501663
C23	C	0.950071	-0.970187	-0.501635
C24	C	0.909783	-0.937322	-0.578307
C25	C	0.869504	-0.970205	-0.654992
C26	C	0.869525	-1.035947	-0.655009
N27	N	0.904893	-0.834062	-0.683327
N28	N	0.904877	-0.771610	-0.683307
C29	C	0.909717	-0.739248	-0.578257
N30	N	0.914587	-0.771696	-0.473225
N31	N	0.914606	-0.834153	-0.473246
C32	C	0.909756	-0.866037	-0.578296
C33	C	0.949964	-0.635087	-0.501540
C34	C	0.949936	-0.569343	-0.501510
C35	C	0.869373	-0.569363	-0.654877
C36	C	0.869398	-0.635105	-0.654897
C37	C	0.909697	-0.667963	-0.578230
C38	C	0.643365	-0.262809	-0.655104
C39	C	0.577622	-0.262792	-0.655109
C40	C	0.544692	-0.302999	-0.578225
C41	C	0.577510	-0.343215	-0.501309
C42	C	0.643251	-0.343226	-0.501298
N43	N	0.441420	-0.358078	-0.568848
N44	N	0.378968	-0.358065	-0.568866
C45	C	0.346617	-0.302966	-0.578252
N46	N	0.379077	-0.247879	-0.587643
N47	N	0.441534	-0.247892	-0.587632
C48	C	0.473407	-0.302991	-0.578228
C49	C	0.242522	-0.262732	-0.655162
C50	C	0.176778	-0.262714	-0.655158
C51	C	0.176667	-0.343142	-0.501365
C52	C	0.242410	-0.343155	-0.501362
C53	C	0.275333	-0.302950	-0.578267
C54	C	1.073885	-0.302933	-0.578257
C55	C	1.143853	-0.302921	-0.578272
C56	C	0.909743	-0.302893	-0.891266
C57	C	0.909763	-0.302864	-1.024666
C58	C	0.909785	-0.138773	-0.578307
C59	C	0.909824	-0.068805	-0.578342
C60	C	0.909682	-0.302987	-0.266398
C61	C	0.909784	-0.302840	-0.132999
H62	H	0.982908	-1.062679	-0.439231
H63	H	0.982865	-0.943415	-0.439191
H64	H	0.149856	-0.375880	-0.438764
H65	H	0.550903	-0.230043	-0.717729
N66	N	0.828352	-0.936628	-0.733297
N67	N	0.828339	-0.877931	-0.733273
H68	H	0.799272	-0.854217	-0.788575
H69	H	0.269124	-0.375903	-0.438746
H70	H	0.836567	-0.542605	-0.717301
N71	N	0.828381	-1.069521	-0.733343
N72	N	0.792407	-1.040174	-0.801789
H73	H	0.763349	-1.063887	-0.857114
H74	H	0.550694	-0.375951	-0.438709
N75	N	0.828257	-0.668689	-0.733218
N76	N	0.770171	-0.661412	-0.725144
H77	H	0.741112	-0.685131	-0.780458
N78	N	0.676769	-0.384298	-0.422729
N79	N	0.669406	-0.380052	-0.311999
H80	H	0.693080	-0.409059	-0.256508
N81	N	0.991124	-0.668646	-0.423210
N82	N	1.027070	-0.639282	-0.354733
H83	H	1.056137	-0.662980	-0.299406
H84	H	0.982727	-0.542576	-0.439061
N85	N	0.676984	-0.221741	-0.733670
N86	N	0.647676	-0.185839	-0.802330
H87	H	0.671420	-0.156835	-0.857819
H88	H	0.269329	-0.229991	-0.717775
N89	N	0.143271	-0.221621	-0.733704
N90	N	0.172678	-0.185726	-0.802349
H91	H	0.149013	-0.156700	-0.857820
