data_functionalizedCrystal
_audit_creation_method	'MofGen! by Chris Wilmer'
_symmetry_space_group_name_H-M	'P1'
_symmetry_Int_Tables_number	1
_symmetry_cell_setting	triclinic
loop_
_symmetry_equiv_pos_as_xyz
  x,y,z
_cell_length_a	17.077403
_cell_length_b	16.120530
_cell_length_c	17.077396
_cell_angle_alpha	87.083390
_cell_angle_beta	89.982408
_cell_angle_gamma	87.096812
loop_
_atom_site_label
_atom_site_type_symbol
_atom_site_fract_x
_atom_site_fract_y
_atom_site_fract_z
Zn1	Zn	-0.373449	1.274703	-0.504701
Zn2	Zn	-0.504721	1.274658	-0.373458
Zn3	Zn	-0.366810	1.135284	-0.366799
Zn4	Zn	-0.498012	1.135304	-0.498034
O5	O	-0.435748	1.204987	-0.435748
O6	O	-0.396448	1.391365	-0.492868
O7	O	-0.486457	1.256143	-0.262726
O8	O	-0.257845	1.153788	-0.385095
O9	O	-0.492894	1.391333	-0.396444
O10	O	-0.262722	1.256219	-0.486411
O11	O	-0.385134	1.153745	-0.257834
O12	O	-0.378629	1.018618	-0.378631
O13	O	-0.481459	1.153822	-0.608767
O14	O	-0.475022	1.018633	-0.475049
O15	O	-0.389943	1.256239	-0.613665
O16	O	-0.613678	1.256162	-0.389980
O17	O	-0.608748	1.153779	-0.481506
C18	C	-0.425377	0.988375	-0.425395
C19	C	-0.420960	0.895707	-0.420984
C20	C	-0.231005	1.205007	-0.435754
C21	C	-0.143755	1.205015	-0.435756
C22	C	-0.435693	1.205038	-0.640495
C23	C	-0.435669	1.205059	-0.727746
C24	C	-0.639696	1.204991	-0.435760
C25	C	-0.726950	1.205068	-0.435795
C26	C	-0.100225	1.151692	-0.383010
C27	C	-0.018245	1.151698	-0.383020
C28	C	0.020203	1.205032	-0.435774
C29	C	-0.023333	1.258358	-0.488526
C30	C	-0.105311	1.258347	-0.488519
C31	C	0.147536	1.258379	-0.488536
C32	C	0.229520	1.258391	-0.488542
C33	C	0.234603	1.151730	-0.383037
C34	C	0.152624	1.151719	-0.383030
C35	C	0.109094	1.205046	-0.435781
C36	C	-0.412876	0.726042	-0.412938
C37	C	-0.458678	0.684773	-0.458615
C38	C	-0.454180	0.590366	-0.454138
C39	C	-0.417373	0.820458	-0.417414
C40	C	-0.446160	1.422446	-0.446142
C41	C	-0.450597	1.515113	-0.450572
C42	C	-0.388012	1.258389	-0.771287
C43	C	-0.387987	1.258399	-0.853268
C44	C	-0.435622	1.205083	-0.891706
C45	C	-0.483281	1.151747	-0.848158
C46	C	-0.483302	1.151733	-0.766179
C47	C	-0.483235	1.151780	-1.019030
C48	C	-0.483216	1.151795	-1.101016
C49	C	-0.387920	1.258446	-1.106120
C50	C	-0.387941	1.258433	-1.024140
C51	C	-0.435601	1.205098	-0.980598
C52	C	-0.435749	1.204985	-0.231800
C53	C	-0.435559	1.205125	-0.144557
H54	H	-0.131523	1.108263	-0.340049
H55	H	-0.522003	1.108378	-1.132309
Cl56	Cl	-0.328006	1.325497	-1.160858
H57	H	0.007976	1.301781	-0.531483
H58	H	-0.501268	0.720344	-0.501083
H59	H	0.260820	1.301821	-0.531501
Cl60	Cl	-0.543163	1.084717	-0.896480
H61	H	-0.370288	0.690473	-0.370474
H62	H	-0.349225	1.301808	-0.739998
Cl63	Cl	-0.160036	1.325383	-0.554833
H64	H	0.112096	1.301793	-0.531501
Cl65	Cl	-0.328109	1.325483	-0.908005
Cl66	Cl	0.289326	1.084693	-0.316718
H67	H	-0.522032	1.108336	-0.983580
H68	H	0.017197	1.108278	-0.340070
Cl69	Cl	0.104290	1.084673	-0.316706
Cl70	Cl	-0.328061	1.325465	-0.975819
Cl71	Cl	-0.543213	1.084684	-0.711440
