data_functionalizedCrystal
_audit_creation_method	'MofGen! by Chris Wilmer'
_symmetry_space_group_name_H-M	'P1'
_symmetry_Int_Tables_number	1
_symmetry_cell_setting	triclinic
loop_
_symmetry_equiv_pos_as_xyz
  x,y,z
_cell_length_a	18.215407
_cell_length_b	18.215405
_cell_length_c	11.169409
_cell_angle_alpha	89.960202
_cell_angle_beta	89.979148
_cell_angle_gamma	90.022329
loop_
_atom_site_label
_atom_site_type_symbol
_atom_site_fract_x
_atom_site_fract_y
_atom_site_fract_z
Zn1	Zn	1.125097	-0.292975	-0.678513
Zn2	Zn	1.375097	-0.042975	-0.428513
Zn3	Zn	1.625097	0.207025	-0.178513
Zn4	Zn	1.875097	0.457025	0.071487
Zn5	Zn	1.124998	-0.416066	-0.477804
Zn6	Zn	1.374998	-0.166066	-0.227804
Zn7	Zn	1.624998	0.083934	0.022196
Zn8	Zn	1.874998	0.333934	0.272196
Zn9	Zn	1.002022	-0.293012	-0.477844
Zn10	Zn	1.252022	-0.043012	-0.227844
Zn11	Zn	1.502022	0.206988	0.022156
Zn12	Zn	1.752022	0.456988	0.272156
Zn13	Zn	1.001996	-0.415999	-0.678445
Zn14	Zn	1.251996	-0.165999	-0.428445
Zn15	Zn	1.501996	0.084001	-0.178445
Zn16	Zn	1.751996	0.334001	0.071555
O17	O	1.063528	-0.354513	-0.578152
O18	O	1.313528	-0.104513	-0.328152
O19	O	1.563528	0.145487	-0.078152
O20	O	1.813528	0.395487	0.171848
O21	O	1.228068	-0.309316	-0.651901
O22	O	1.478068	-0.059316	-0.401901
O23	O	1.728068	0.190684	-0.151901
O24	O	1.978068	0.440684	0.098099
O25	O	1.108655	-0.399787	-0.309860
O26	O	1.358655	-0.149787	-0.059860
O27	O	1.608655	0.100213	0.190140
O28	O	1.858655	0.350213	0.440140
O29	O	1.018401	-0.190023	-0.504508
O30	O	1.268401	0.059977	-0.254508
O31	O	1.518401	0.309977	-0.004508
O32	O	1.768401	0.559977	0.245492
O33	O	1.227996	-0.399750	-0.504440
O34	O	1.477996	-0.149750	-0.254440
O35	O	1.727996	0.100250	-0.004440
O36	O	1.977996	0.350250	0.245560
O37	O	1.108824	-0.189996	-0.651939
O38	O	1.358824	0.060004	-0.401939
O39	O	1.608824	0.310004	-0.151939
O40	O	1.858824	0.560004	0.098061
O41	O	1.018305	-0.309380	-0.309889
O42	O	1.268305	-0.059380	-0.059889
O43	O	1.518305	0.190620	0.190111
O44	O	1.768305	0.440620	0.440111
O45	O	0.899035	-0.309314	-0.504443
O46	O	1.149035	-0.059314	-0.254443
O47	O	1.399035	0.190686	-0.004443
O48	O	1.649035	0.440686	0.245557
O49	O	1.018356	-0.399636	-0.846404
O50	O	1.268356	-0.149636	-0.596404
O51	O	1.518356	0.100364	-0.346404
O52	O	1.768356	0.350364	-0.096404
O53	O	0.899015	-0.399672	-0.651823
O54	O	1.149015	-0.149672	-0.401823
O55	O	1.399015	0.100328	-0.151823
O56	O	1.649015	0.350328	0.098177
O57	O	1.108798	-0.309250	-0.846454
O58	O	1.358798	-0.059250	-0.596454
O59	O	1.608798	0.190750	-0.346454
O60	O	1.858798	0.440750	-0.096454
O61	O	1.108629	-0.519041	-0.504374
O62	O	1.358629	-0.269041	-0.254374
O63	O	1.608629	-0.019041	-0.004374
O64	O	1.858629	0.230959	0.245626
O65	O	1.018260	-0.518992	-0.651785
O66	O	1.268260	-0.268992	-0.401785
O67	O	1.518260	-0.018992	-0.151785
O68	O	1.768260	0.231008	0.098215
C69	C	0.872322	-0.354490	-0.578131
C70	C	1.122322	-0.104490	-0.328131
C71	C	1.372322	0.145510	-0.078131
C72	C	1.622322	0.395510	0.171869
C73	C	0.790523	-0.354498	-0.578150
C74	C	1.040523	-0.104498	-0.328150
C75	C	1.290523	0.145502	-0.078150
C76	C	1.540523	0.395502	0.171850
C77	C	0.602366	-0.307506	-0.655054
C78	C	0.852366	-0.057506	-0.405054
C79	C	1.102366	0.192494	-0.155054
C80	C	1.352366	0.442494	0.094946
C81	C	0.525507	-0.307512	-0.655058
C82	C	0.775507	-0.057512	-0.405058
C83	C	1.025507	0.192488	-0.155058
C84	C	1.275507	0.442488	0.094942
C85	C	0.525443	-0.401541	-0.501271
C86	C	0.775443	-0.151541	-0.251271
C87	C	1.025443	0.098459	-0.001271
C88	C	1.275443	0.348459	0.248729
C89	C	0.602300	-0.401530	-0.501261
C90	C	0.852300	-0.151530	-0.251261
C91	C	1.102300	0.098470	-0.001261
C92	C	1.352300	0.348470	0.248739
C93	C	0.640760	-0.354514	-0.578160
C94	C	0.890760	-0.104514	-0.328160
C95	C	1.140760	0.145486	-0.078160
C96	C	1.390760	0.395486	0.171840
C97	C	0.487044	-0.354531	-0.578173
C98	C	0.737044	-0.104531	-0.328173
C99	C	0.987044	0.145469	-0.078173
C100	C	1.237044	0.395469	0.171827
C101	C	0.403710	-0.354538	-0.578177
C102	C	0.653710	-0.104538	-0.328177
C103	C	0.903710	0.145462	-0.078177
C104	C	1.153710	0.395462	0.171823
C105	C	0.724099	-0.354506	-0.578155
C106	C	0.974099	-0.104506	-0.328155
C107	C	1.224099	0.145494	-0.078155
C108	C	1.474099	0.395494	0.171845
C109	C	1.063451	-0.545719	-0.578094
C110	C	1.313451	-0.295719	-0.328094
C111	C	1.563451	-0.045719	-0.078094
C112	C	1.813451	0.204281	0.171906
C113	C	1.063485	-0.627518	-0.578109
C114	C	1.313485	-0.377518	-0.328109
C115	C	1.563485	-0.127518	-0.078109
C116	C	1.813485	0.122482	0.171891
C117	C	1.110651	-0.815713	-0.501494
C118	C	1.360651	-0.565713	-0.251494
C119	C	1.610651	-0.315713	-0.001494
C120	C	1.860651	-0.065713	0.248506
C121	C	1.110683	-0.892572	-0.501523
C122	C	1.360683	-0.642572	-0.251523
C123	C	1.610683	-0.392572	-0.001523
C124	C	1.860683	-0.142572	0.248477
C125	C	1.016500	-0.892561	-0.654896
C126	C	1.266500	-0.642561	-0.404896
C127	C	1.516500	-0.392561	-0.154896
C128	C	1.766500	-0.142561	0.095104
C129	C	1.016472	-0.815703	-0.654872
C130	C	1.266472	-0.565703	-0.404872
C131	C	1.516472	-0.315703	-0.154872
C132	C	1.766472	-0.065703	0.095128
C133	C	1.063546	-0.777282	-0.578164
C134	C	1.313546	-0.527282	-0.328164
C135	C	1.563546	-0.277282	-0.078164
C136	C	1.813546	-0.027282	0.171836
C137	C	1.063607	-0.930998	-0.578217
C138	C	1.313607	-0.680998	-0.328217
C139	C	1.563607	-0.430998	-0.078217
C140	C	1.813607	-0.180998	0.171783
C141	C	1.063643	-1.014331	-0.578249
C142	C	1.313643	-0.764331	-0.328249
C143	C	1.563643	-0.514331	-0.078249
C144	C	1.813643	-0.264331	0.171751
C145	C	1.063512	-0.693943	-0.578133
C146	C	1.313512	-0.443943	-0.328133
C147	C	1.563512	-0.193943	-0.078133
C148	C	1.813512	0.056057	0.171867
C149	C	1.255481	-0.354536	-0.578174
C150	C	1.505481	-0.104536	-0.328174
C151	C	1.755481	0.145464	-0.078174
C152	C	2.005481	0.395464	0.171826
C153	C	1.337280	-0.354546	-0.578183
C154	C	1.587280	-0.104546	-0.328183
C155	C	1.837280	0.145454	-0.078183
C156	C	2.087280	0.395454	0.171817
C157	C	1.063585	-0.354431	-0.891194
C158	C	1.313585	-0.104431	-0.641194
C159	C	1.563585	0.145569	-0.391194
C160	C	1.813585	0.395569	-0.141194
C161	C	1.063609	-0.354396	-1.024594
C162	C	1.313609	-0.104396	-0.774594
C163	C	1.563609	0.145604	-0.524594
C164	C	1.813609	0.395604	-0.274594
C165	C	1.063626	-0.162560	-0.578236
C166	C	1.313626	0.087440	-0.328236
C167	C	1.563626	0.337440	-0.078236
C168	C	1.813626	0.587440	0.171764
C169	C	1.063668	-0.080761	-0.578272
C170	C	1.313668	0.169239	-0.328272
C171	C	1.563668	0.419239	-0.078272
C172	C	1.813668	0.669239	0.171728
C173	C	1.063514	-0.354541	-0.266327
C174	C	1.313514	-0.104541	-0.016327
C175	C	1.563514	0.145459	0.233673
C176	C	1.813514	0.395459	0.483673
C177	C	1.063633	-0.354369	-0.132928
C178	C	1.313633	-0.104369	0.117072
C179	C	1.563633	0.145631	0.367072
C180	C	1.813633	0.395631	0.617072
H181	H	0.633678	-0.269220	-0.717666
H182	H	0.883678	-0.019220	-0.467666
H183	H	1.133678	0.230780	-0.217666
H184	H	1.383678	0.480780	0.032334
H185	H	0.494251	-0.269233	-0.717671
H186	H	0.744251	-0.019233	-0.467671
H187	H	0.994251	0.230767	-0.217671
H188	H	1.244251	0.480767	0.032329
Br189	Br	1.174618	-0.944727	-0.397473
Br190	Br	1.424618	-0.694727	-0.147473
Br191	Br	1.674618	-0.444727	0.102527
Br192	Br	1.924618	-0.194727	0.352527
Br193	Br	0.473243	-0.465346	-0.396915
Br194	Br	0.723243	-0.215346	-0.146915
Br195	Br	0.973243	0.034654	0.103085
Br196	Br	1.223243	0.284654	0.353085
H197	H	0.978113	-0.784410	-0.717311
H198	H	1.228113	-0.534410	-0.467311
H199	H	1.478113	-0.284410	-0.217311
H200	H	1.728113	-0.034410	0.032689
Br201	Br	0.654410	-0.465321	-0.396880
Br202	Br	0.904410	-0.215321	-0.146880
Br203	Br	1.154410	0.034679	0.103120
Br204	Br	1.404410	0.284679	0.353120
Br205	Br	0.952616	-0.944709	-0.758992
Br206	Br	1.202616	-0.694709	-0.508992
Br207	Br	1.452616	-0.444709	-0.258992
Br208	Br	1.702616	-0.194709	-0.008992
Br209	Br	1.174537	-0.763572	-0.397392
Br210	Br	1.424537	-0.513572	-0.147392
Br211	Br	1.674537	-0.263572	0.102608
Br212	Br	1.924537	-0.013572	0.352608
