data_functionalizedCrystal
_audit_creation_method	'MofGen! by Chris Wilmer'
_symmetry_space_group_name_H-M	'P1'
_symmetry_Int_Tables_number	1
_symmetry_cell_setting	triclinic
loop_
_symmetry_equiv_pos_as_xyz
  x,y,z
_cell_length_a	16.959454
_cell_length_b	25.639242
_cell_length_c	16.959447
_cell_angle_alpha	89.974667
_cell_angle_beta	90.026736
_cell_angle_gamma	89.985266
loop_
_atom_site_label
_atom_site_type_symbol
_atom_site_fract_x
_atom_site_fract_y
_atom_site_fract_z
Zn1	Zn	-0.314778	-0.799303	0.447161
Zn2	Zn	0.185222	-0.299303	0.947161
Zn3	Zn	-0.446971	-0.799252	0.314990
Zn4	Zn	0.053029	-0.299252	0.814990
Zn5	Zn	-0.314798	-0.711876	0.314973
Zn6	Zn	0.185202	-0.211876	0.814973
Zn7	Zn	-0.446907	-0.711853	0.447103
Zn8	Zn	0.053093	-0.211853	0.947103
O9	O	-0.380863	-0.755571	0.381057
O10	O	0.119137	-0.255571	0.881057
O11	O	-0.332333	-0.872462	0.429659
O12	O	0.167667	-0.372462	0.929659
O13	O	-0.429473	-0.787650	0.204377
O14	O	0.070527	-0.287650	0.704377
O15	O	-0.204185	-0.723505	0.332524
O16	O	0.295815	-0.223505	0.832524
O17	O	-0.429454	-0.872424	0.332554
O18	O	0.070546	-0.372424	0.832554
O19	O	-0.204170	-0.787737	0.429642
O20	O	0.295830	-0.287737	0.929642
O21	O	-0.332366	-0.723455	0.204364
O22	O	0.167634	-0.223455	0.704364
O23	O	-0.332304	-0.638708	0.332469
O24	O	0.167696	-0.138708	0.832469
O25	O	-0.429344	-0.723465	0.557722
O26	O	0.070656	-0.223465	1.057722
O27	O	-0.429363	-0.638691	0.429545
O28	O	0.070637	-0.138691	0.929545
O29	O	-0.332270	-0.787715	0.557764
O30	O	0.167730	-0.287715	1.057764
O31	O	-0.557573	-0.787627	0.332499
O32	O	-0.057573	-0.287627	0.832499
O33	O	-0.557526	-0.723416	0.429562
O34	O	-0.057526	-0.223416	0.929562
C35	C	-0.380829	-0.619729	0.380999
C36	C	0.119171	-0.119729	0.880999
C37	C	-0.380834	-0.561615	0.380993
C38	C	0.119166	-0.061615	0.880993
C39	C	-0.330237	-0.310421	0.330577
C40	C	0.169763	0.189579	0.830577
C41	C	-0.330230	-0.365026	0.330569
C42	C	0.169770	0.134974	0.830569
O43	O	-0.287167	-0.393262	0.287670
O44	O	0.212833	0.106738	0.787670
N45	N	-0.380842	-0.392341	0.381025
N46	N	0.119158	0.107659	0.881025
C47	C	-0.431459	-0.365049	0.431498
C48	C	0.068541	0.134951	0.931498
O49	O	-0.474507	-0.393296	0.474415
O50	O	0.025493	0.106704	0.974415
C51	C	-0.431461	-0.310445	0.431509
C52	C	0.068539	0.189555	0.931509
C53	C	-0.380852	-0.283133	0.381044
C54	C	0.119148	0.216867	0.881044
C55	C	-0.279631	-0.283109	0.280116
C56	C	0.220369	0.216891	0.780116
C57	C	-0.279639	-0.228508	0.280123
C58	C	0.220361	0.271492	0.780123
C59	C	-0.330254	-0.201220	0.330590
C60	C	0.169746	0.298780	0.830590
C61	C	-0.380860	-0.228533	0.381051
C62	C	0.119140	0.271467	0.881051
C63	C	-0.482073	-0.283154	0.481986
C64	C	0.017927	0.216846	0.981986
C65	C	-0.482071	-0.228547	0.481993
C66	C	0.017929	0.271453	0.981993
C67	C	-0.431461	-0.201235	0.431527
C68	C	0.068539	0.298765	0.931527
C69	C	-0.431482	-0.146644	0.431525
C70	C	0.068518	0.353356	0.931525
N71	N	-0.380870	-0.119329	0.381069
N72	N	0.119130	0.380671	0.881069
C73	C	-0.330256	-0.146617	0.330601
C74	C	0.169744	0.353383	0.830601
C75	C	-0.431449	-0.479719	0.431472
C76	C	0.068551	0.020281	0.931472
C77	C	-0.431451	-0.534322	0.431458
C78	C	0.068549	-0.034322	0.931458
C79	C	-0.330221	-0.534295	0.330530
C80	C	0.169779	-0.034295	0.830530
C81	C	-0.330224	-0.479692	0.330541
C82	C	0.169776	0.020308	0.830541
C83	C	-0.380837	-0.452404	0.381016
C84	C	0.119163	0.047596	0.881016
C85	C	-0.330278	-0.031952	0.330619
C86	C	0.169722	0.468048	0.830619
C87	C	-0.330293	0.022654	0.330628
C88	C	0.169707	0.522654	0.830628
C89	C	-0.431519	0.022622	0.431559
C90	C	0.068481	0.522622	0.931559
C91	C	-0.431507	-0.031979	0.431547
C92	C	0.068493	0.468021	0.931547
C93	C	-0.380880	-0.059264	0.381075
C94	C	0.119120	0.440736	0.881075
O95	O	-0.474522	-0.118372	0.474405
O96	O	0.025478	0.381628	0.974405
O97	O	-0.287208	-0.118363	0.287699
O98	O	0.212792	0.381637	0.787699
C99	C	-0.586230	-0.755527	0.381043
C100	C	-0.086230	-0.255527	0.881043
C101	C	-0.674086	-0.755557	0.381064
C102	C	-0.174086	-0.255557	0.881064
C103	C	-1.045567	-0.722185	0.431592
C104	C	-0.545567	-0.222185	0.931592
C105	C	-1.045557	-0.789103	0.330602
C106	C	-0.545557	-0.289103	0.830602
C107	C	-0.963011	-0.789085	0.330595
C108	C	-0.463011	-0.289085	0.830595
C109	C	-0.921739	-0.755616	0.381086
C110	C	-0.421739	-0.255616	0.881086
C111	C	-0.963014	-0.722164	0.431585
C112	C	-0.463014	-0.222164	0.931585
C113	C	-0.921730	-0.822532	0.280091
C114	C	-0.421730	-0.322532	0.780091
C115	C	-0.839179	-0.822515	0.280081
C116	C	-0.339179	-0.322515	0.780081
C117	C	-0.797906	-0.789047	0.330577
C118	C	-0.297906	-0.289047	0.830577
C119	C	-0.839186	-0.755595	0.381079
C120	C	-0.339186	-0.255595	0.881079
C121	C	-0.797914	-0.722126	0.431570
C122	C	-0.297914	-0.222126	0.931570
C123	C	-0.839192	-0.688676	0.482076
C124	C	-0.339192	-0.188676	0.982076
C125	C	-0.921741	-0.688697	0.482081
C126	C	-0.421741	-0.188697	0.982081
C127	C	-0.715358	-0.789026	0.330573
C128	C	-0.215358	-0.289026	0.830573
C129	C	-0.715361	-0.722105	0.431563
C130	C	-0.215361	-0.222105	0.931563
C131	C	-0.174695	-0.755629	0.381088
C132	C	0.325305	-0.255629	0.881088
C133	C	-0.086839	-0.755654	0.381101
C134	C	0.413161	-0.255654	0.881101
C135	C	-0.380798	-0.755593	0.587225
C136	C	0.119202	-0.255593	1.087225
C137	C	-0.380770	-0.755602	0.675082
C138	C	0.119230	-0.255602	1.175082
C139	C	-0.380897	0.108056	0.381104
C140	C	0.119103	0.608056	0.881104
C141	C	-0.380907	0.049942	0.381095
C142	C	0.119093	0.549942	0.881095
C143	C	-0.380872	-0.755580	0.175691
C144	C	0.119128	-0.255580	0.675691
C145	C	-0.380677	-0.755672	0.087834
C146	C	0.119323	-0.255672	0.587834
C147	C	-0.431229	-0.722213	1.046538
C148	C	0.068771	-0.222213	1.546538
C149	C	-0.330145	-0.789116	1.046577
C150	C	0.169855	-0.289116	1.546577
C151	C	-0.330162	-0.789103	0.964031
C152	C	0.169838	-0.289103	1.464031
C153	C	-0.380714	-0.755644	0.922735
C154	C	0.119286	-0.255644	1.422735
C155	C	-0.431249	-0.722199	0.963985
C156	C	0.068751	-0.222199	1.463985
C157	C	-0.279633	-0.822550	0.922775
C158	C	0.220367	-0.322550	1.422775
C159	C	-0.279648	-0.822538	0.840224
C160	C	0.220352	-0.322538	1.340224
C161	C	-0.330197	-0.789076	0.798926
C162	C	0.169803	-0.289076	1.298926
C163	C	-0.380734	-0.755630	0.840181
C164	C	0.119266	-0.255630	1.340181
C165	C	-0.431285	-0.722171	0.798885
C166	C	0.068715	-0.222171	1.298885
C167	C	-0.481819	-0.688722	0.840138
C168	C	0.018181	-0.188722	1.340138
C169	C	-0.481797	-0.688738	0.922687
C170	C	0.018203	-0.188738	1.422687
C171	C	-0.330218	-0.789061	0.716378
C172	C	0.169782	-0.289061	1.216378
C173	C	-0.431305	-0.722158	0.716331
C174	C	0.068695	-0.222158	1.216331
H175	H	-0.289007	-0.556523	0.289438
H176	H	0.210993	-0.056523	0.789438
H177	H	-0.289010	-0.457457	0.289450
H178	H	0.210990	0.042543	0.789450
Br179	Br	-0.783171	-0.643251	0.550591
Br180	Br	-0.283171	-0.143251	1.050591
H181	H	-0.955339	-0.849777	0.238978
H182	H	-0.455339	-0.349777	0.738978
Br183	Br	-0.500202	-0.069047	0.500026
Br184	Br	-0.000202	0.430953	1.000026
H185	H	-0.472731	0.044850	0.472645
H186	H	0.027269	0.544850	0.972645
Br187	Br	-0.211040	-0.867961	0.978822
Br188	Br	0.288960	-0.367961	1.478822
Br189	Br	-0.261651	-0.834457	0.660394
Br190	Br	0.238349	-0.334457	1.160394
Br191	Br	-0.210928	-0.320133	0.211618
Br192	Br	0.289072	0.179867	0.711618
Br193	Br	-0.211068	-0.867932	0.784244
Br194	Br	0.288932	-0.367932	1.284244
H195	H	-0.523285	-0.206333	0.523100
H196	H	-0.023285	0.293667	1.023100
H197	H	-0.472671	-0.556555	0.472544
H198	H	0.027329	-0.056555	0.972544
H199	H	-0.289049	-0.054161	0.289523
H200	H	0.210951	0.445839	0.789523
Br201	Br	-0.261606	0.059717	0.262132
Br202	Br	0.238394	0.559717	0.762132
Br203	Br	-0.550374	-0.643348	0.978678
Br204	Br	-0.050374	-0.143348	1.478678
Br205	Br	-0.550763	-0.320207	0.550479
Br206	Br	-0.050763	0.179793	1.050479
Br207	Br	-0.977765	-0.643305	0.550618
Br208	Br	-0.477765	-0.143305	1.050618
H209	H	-0.238428	-0.206276	0.239029
H210	H	0.261572	0.293724	0.739029
Br211	Br	-0.499802	-0.676817	1.102521
Br212	Br	0.000198	-0.176817	1.602521
H213	H	-0.681763	-0.694852	0.472682
H214	H	-0.181763	-0.194852	0.972682
H215	H	-1.079179	-0.694952	0.472715
H216	H	-0.579179	-0.194952	0.972715
Br217	Br	-1.101568	-0.834523	0.262080
Br218	Br	-0.601568	-0.334523	0.762080
H219	H	-0.805576	-0.849752	0.238958
H220	H	-0.305576	-0.349752	0.738958
Br221	Br	-0.500151	-0.442692	0.499976
Br222	Br	-0.000151	0.057308	0.999976
Br223	Br	-0.261550	-0.834528	1.102622
Br224	Br	0.238450	-0.334528	1.602622
H225	H	-0.681753	-0.816258	0.289448
H226	H	-0.181753	-0.316258	0.789448
H227	H	-0.472464	-0.694906	0.682714
H228	H	0.027536	-0.194906	1.182714
Br229	Br	-0.550429	-0.643320	0.784084
Br230	Br	-0.050429	-0.143320	1.284084
