data_functionalizedCrystal
_audit_creation_method	'MofGen! by Chris Wilmer'
_symmetry_space_group_name_H-M	'P1'
_symmetry_Int_Tables_number	1
_symmetry_cell_setting	triclinic
loop_
_symmetry_equiv_pos_as_xyz
  x,y,z
_cell_length_a	14.853558
_cell_length_b	14.853559
_cell_length_c	15.455313
_cell_angle_alpha	92.670929
_cell_angle_beta	87.315599
_cell_angle_gamma	83.631294
loop_
_atom_site_label
_atom_site_type_symbol
_atom_site_fract_x
_atom_site_fract_y
_atom_site_fract_z
O1	O	1.200312	0.113727	-0.072116
O2	O	0.937851	0.127757	-0.072120
O3	O	1.076097	-0.010488	-0.072117
O4	O	1.062067	0.251972	-0.072119
O5	O	1.068191	-0.002616	0.072145
O6	O	0.929946	0.135630	0.072142
O7	O	1.192407	0.121600	0.072146
Cu8	Cu	1.060455	0.129334	0.085316
Cu9	Cu	1.069804	0.120023	-0.085290
O10	O	1.054162	0.259845	0.072143
C11	C	0.900310	0.131059	0.000011
C12	C	0.800226	0.129159	0.000009
C13	C	0.757515	0.123976	-0.078631
C14	C	0.748895	0.132548	0.078649
C15	C	0.654861	0.130758	0.078650
C16	C	0.612150	0.125575	0.000010
C17	C	0.663473	0.122182	-0.078632
C18	C	0.603532	0.134141	0.157291
C19	C	0.509493	0.132350	0.157295
C20	C	0.466780	0.127173	0.078654
C21	C	0.518108	0.123782	0.000009
C22	C	0.475398	0.118599	-0.078632
C23	C	0.526724	0.115213	-0.157278
C24	C	0.620760	0.117006	-0.157273
C25	C	0.372743	0.125381	0.078650
C26	C	0.381356	0.116805	-0.078633
C27	C	1.071510	-0.040141	0.000013
C28	C	1.069609	-0.140225	0.000008
C29	C	1.065855	-0.567692	-0.078630
C30	C	1.057236	-0.559103	0.078650
C31	C	1.059029	-0.465070	0.078651
C32	C	1.064234	-0.422343	0.000010
C33	C	1.067645	-0.473649	-0.078631
C34	C	1.055608	-0.413755	0.157291
C35	C	1.057401	-0.319716	0.157295
C36	C	1.062612	-0.276988	0.078653
C37	C	1.066025	-0.328301	0.000009
C38	C	1.071230	-0.285574	-0.078632
C39	C	1.074649	-0.336886	-0.157278
C40	C	1.072857	-0.430922	-0.157273
C41	C	1.064404	-0.182952	0.078649
C42	C	1.073021	-0.191532	-0.078634
C43	C	1.229948	0.118298	0.000014
C44	C	1.330033	0.120198	0.000009
C45	C	1.058749	0.289498	0.000012
C46	C	1.060650	0.389582	0.000011
N47	N	1.053885	0.135882	0.205312
N48	N	1.076380	0.113468	-0.205285
C49	C	1.112637	0.077172	0.250707
C50	C	1.107678	0.082132	0.341515
C51	C	1.043970	0.145807	0.386926
C52	C	0.985212	0.204520	0.341524
C53	C	0.990168	0.199555	0.250718
C54	C	1.022578	0.167215	0.658507
C55	C	1.017628	0.172178	0.749319
C56	C	1.140093	0.049788	0.749304
C57	C	1.145047	0.044832	0.658496
C58	C	1.086286	0.103542	0.613102
N59	N	1.038901	0.150881	0.479746
N60	N	1.091352	0.098463	0.520284
H61	H	0.346587	0.112590	-0.142672
H62	H	0.467711	0.135105	0.221334
H63	H	1.068642	-0.609474	-0.142661
C64	C	0.479730	0.109509	-0.243779
N65	N	0.444331	0.105212	-0.308931
C66	C	0.650510	0.139914	0.243789
N67	N	0.685894	0.144293	0.308943
H68	H	1.061600	-0.141176	0.142681
H69	H	1.051366	-0.448550	0.221316
C70	C	0.795874	0.138297	0.165148
N71	N	0.831259	0.142647	0.230303
H72	H	0.974734	0.215020	0.621554
C73	C	0.316289	0.129103	0.165155
N74	N	0.273769	0.131908	0.230315
H75	H	0.662558	0.114248	-0.221303
C76	C	0.813974	0.120249	-0.165138
N77	N	0.856501	0.117439	-0.230295
H78	H	1.077263	-0.156751	-0.142674
H79	H	1.052992	-0.593896	0.142676
C80	C	1.215126	-0.025220	0.608551
N81	N	1.267911	-0.077984	0.570932
H82	H	1.078880	-0.302084	-0.221307
H83	H	1.054620	-0.277946	0.221333
C84	C	1.076608	-0.487370	-0.243776
N85	N	1.079429	-0.529890	-0.308928
H86	H	1.164519	0.025325	0.213740
C87	C	1.172288	0.017525	0.391446
N88	N	1.220948	-0.031149	0.429053
H89	H	1.187933	0.001989	0.786272
H90	H	0.942325	0.247361	0.213758
H91	H	0.965747	0.224034	0.786289
C92	C	0.915124	0.274555	0.391479
N93	N	0.862332	0.327307	0.429105
