data_functionalizedCrystal
_audit_creation_method	'MofGen! by Chris Wilmer'
_symmetry_space_group_name_H-M	'P1'
_symmetry_Int_Tables_number	1
_symmetry_cell_setting	triclinic
loop_
_symmetry_equiv_pos_as_xyz
  x,y,z
_cell_length_a	19.288840
_cell_length_b	17.699083
_cell_length_c	18.366186
_cell_angle_alpha	89.992864
_cell_angle_beta	89.983729
_cell_angle_gamma	83.204515
loop_
_atom_site_label
_atom_site_type_symbol
_atom_site_fract_x
_atom_site_fract_y
_atom_site_fract_z
O1	O	0.921475	0.094327	-0.060673
O2	O	1.421475	0.594327	0.439327
O3	O	0.719228	0.107083	-0.060648
O4	O	1.219228	0.607083	0.439352
O5	O	0.826065	-0.009493	-0.060654
O6	O	1.326065	0.490507	0.439346
O7	O	0.814637	0.210903	-0.060666
O8	O	1.314637	0.710903	0.439334
O9	O	0.826047	-0.009498	0.060445
O10	O	1.326047	0.490502	0.560445
O11	O	0.719209	0.107078	0.060452
O12	O	1.219209	0.607078	0.560452
O13	O	0.921457	0.094321	0.060427
O14	O	1.421457	0.594321	0.560427
Zn15	Zn	0.820330	0.100699	0.079666
Zn16	Zn	1.320330	0.600699	0.579666
Zn17	Zn	0.820354	0.100706	-0.079887
Zn18	Zn	1.320354	0.600706	0.420113
O19	O	0.814619	0.210897	0.060433
O20	O	1.314619	0.710897	0.560433
C21	C	0.693341	0.106673	-0.000095
C22	C	1.193341	0.606673	0.499905
C23	C	0.616235	0.105451	-0.000085
C24	C	1.116235	0.605451	0.499915
C25	C	0.580041	0.104866	-0.066098
C26	C	1.080041	0.604866	0.433902
C27	C	0.507593	0.103709	-0.066107
C28	C	1.007593	0.603709	0.433893
C29	C	0.471343	0.103121	-0.000099
C30	C	0.971343	0.603121	0.499901
C31	C	0.507546	0.103710	0.065923
C32	C	1.007546	0.603710	0.565923
C33	C	0.579992	0.104874	0.065930
C34	C	1.079992	0.604874	0.565930
C35	C	0.361953	0.056941	0.050465
C36	C	0.861953	0.556941	0.550465
C37	C	0.289509	0.055772	0.050455
C38	C	0.789509	0.555772	0.550455
C39	C	0.247895	0.099531	-0.000118
C40	C	0.747895	0.599531	0.499882
C41	C	0.278736	0.144451	-0.050693
C42	C	0.778736	0.644451	0.449307
C43	C	0.351182	0.145616	-0.050686
C44	C	0.851182	0.645616	0.449314
C45	C	0.392788	0.101858	-0.000099
C46	C	0.892788	0.601858	0.499901
C47	C	0.133144	0.097693	-0.066145
C48	C	0.633144	0.597693	0.433855
C49	C	0.060694	0.096541	-0.066151
C50	C	0.560694	0.596541	0.433849
C51	C	0.060650	0.096534	0.065881
C52	C	0.560650	0.596534	0.565881
C53	C	0.133098	0.097694	0.065885
C54	C	0.633098	0.597694	0.565885
C55	C	0.169341	0.098270	-0.000130
C56	C	0.669341	0.598270	0.499870
C57	C	0.825647	-0.037692	-0.000105
C58	C	1.325647	0.462308	0.499895
C59	C	0.824418	-0.121708	-0.000104
C60	C	1.324418	0.378292	0.499896
C61	C	0.887130	-0.170423	-0.000111
C62	C	1.387130	0.329577	0.499889
C63	C	0.885972	-0.249365	-0.000117
C64	C	1.385972	0.250635	0.499883
C65	C	0.822101	-0.279590	-0.000112
C66	C	1.322101	0.220410	0.499888
C67	C	0.759384	-0.230868	-0.000107
C68	C	1.259384	0.269132	0.499893
C69	C	0.760544	-0.151928	-0.000106
C70	C	1.260544	0.348072	0.499894
C71	C	0.754708	-0.549224	-0.000112
C72	C	1.254708	-0.049224	0.499888
C73	C	0.753554	-0.628170	-0.000111
C74	C	1.253554	-0.128170	0.499889
C75	C	0.880136	-0.646661	-0.000124
C76	C	1.380136	-0.146661	0.499876
C77	C	0.881296	-0.567721	-0.000123
C78	C	1.381296	-0.067721	0.499877
C79	C	0.818580	-0.519006	-0.000122
C80	C	1.318580	-0.019006	0.499878
C81	C	0.819836	-0.433409	-0.000116
C82	C	1.319836	0.066591	0.499884
C83	C	0.820843	-0.365185	-0.000112
C84	C	1.320843	0.134815	0.499888
C85	C	0.947344	0.094731	-0.000128
C86	C	1.447344	0.594731	0.499872
C87	C	1.024450	0.095954	-0.000142
C88	C	1.524450	0.595954	0.499858
C89	C	0.815038	0.239096	-0.000118
C90	C	1.315038	0.739096	0.499882
C91	C	0.816266	0.323113	-0.000123
C92	C	1.316266	0.823113	0.499877
N93	N	0.820319	0.100693	0.188557
N94	N	1.320319	0.600693	0.688557
N95	N	0.820371	0.100706	-0.188778
N96	N	1.320371	0.600706	0.311222
C97	C	0.867643	0.049098	0.226655
C98	C	1.367643	0.549098	0.726655
C99	C	0.867647	0.049095	0.302883
C100	C	1.367647	0.549095	0.802883
C101	C	0.820335	0.100699	0.341010
C102	C	1.320335	0.600699	0.841010
C103	C	0.773002	0.152298	0.302904
C104	C	1.273002	0.652298	0.802904
C105	C	0.772995	0.152295	0.226677
C106	C	1.272995	0.652295	0.726677
C107	C	0.811118	0.169662	0.461768
C108	C	1.311118	0.669662	0.961768
C109	C	0.811131	0.169666	0.537993
C110	C	1.311131	0.669666	1.037993
C111	C	0.820354	0.100709	0.576118
C112	C	1.320354	0.600709	1.076118
C113	C	0.829580	0.031744	0.538009
C114	C	1.329580	0.531744	1.038009
C115	C	0.829573	0.031741	0.461782
C116	C	1.329573	0.531741	0.961782
C117	C	0.820337	0.100708	0.423665
C118	C	1.320337	0.600708	0.923665
C119	C	0.867685	0.049106	0.696870
C120	C	1.367685	0.549106	1.196870
C121	C	0.867685	0.049102	0.773099
C122	C	1.367685	0.549102	1.273099
C123	C	0.773043	0.152311	0.773119
C124	C	1.273043	0.652311	1.273119
C125	C	0.773041	0.152309	0.696891
C126	C	1.273041	0.652309	1.196891
C127	C	0.820365	0.100707	0.658771
C128	C	1.320365	0.600707	1.158771
H129	H	0.478117	0.103235	-0.119864
H130	H	0.978117	0.603235	0.380136
C131	C	0.333263	0.233166	-0.150660
C132	C	0.833263	0.733166	0.349340
C133	C	0.385081	0.194998	-0.106267
C134	C	0.885081	0.694998	0.393733
H135	H	0.354192	0.263657	-0.184969
H136	H	0.854192	0.763657	0.315031
H137	H	0.309364	0.197069	-0.175706
H138	H	0.809364	0.697069	0.324294
H139	H	0.301097	0.264666	-0.121411
H140	H	0.801097	0.764666	0.378589
H141	H	0.417244	0.163493	-0.135516
H142	H	0.917244	0.663493	0.364484
H143	H	0.408991	0.231098	-0.081219
H144	H	0.908991	0.731098	0.418781
C145	C	0.961989	0.032081	0.140613
C146	C	1.461989	0.532081	0.640613
C147	C	0.919431	-0.007751	0.184623
C148	C	1.419431	0.492249	0.684623
H149	H	0.993895	-0.003055	0.114628
H150	H	1.493895	0.496945	0.614628
H151	H	0.933791	0.062930	0.107119
H152	H	1.433791	0.562930	0.607119
H153	H	0.987150	0.063374	0.170248
H154	H	1.487150	0.563374	0.670248
H155	H	0.894265	-0.039040	0.154987
H156	H	1.394265	0.460960	0.654987
H157	H	0.947632	-0.038613	0.218120
H158	H	1.447632	0.461387	0.718120
H159	H	0.244854	0.180087	-0.091872
H160	H	0.744854	0.680087	0.408128
H161	H	0.837083	-0.024412	0.430757
H162	H	1.337083	0.475588	0.930757
H163	H	0.703641	-0.509570	-0.000112
H164	H	1.203641	-0.009570	0.499888
C165	C	0.125912	0.097604	-0.196652
C166	C	0.625912	0.597604	0.303348
C167	C	0.172986	0.098346	-0.138706
C168	C	0.672986	0.598346	0.361294
H169	H	0.150508	0.098014	-0.241447
H170	H	0.650508	0.598014	0.258553
H171	H	0.103036	0.053024	-0.193914
H172	H	0.603036	0.553024	0.306086
H173	H	0.092273	0.141278	-0.193899
H174	H	0.592273	0.641278	0.306101
H175	H	0.206622	0.054668	-0.141457
H176	H	0.706622	0.554668	0.358543
H177	H	0.195874	0.142931	-0.141445
H178	H	0.695874	0.642931	0.358555
C179	C	-0.028669	0.160286	-0.142766
C180	C	0.471331	0.660286	0.357234
C181	C	0.020908	0.095902	-0.138720
C182	C	0.520908	0.595902	0.361280
H183	H	-0.053228	0.159892	-0.187571
H184	H	0.446772	0.659892	0.312429
H185	H	-0.060623	0.159770	-0.103461
H186	H	0.439377	0.659770	0.396539
H187	H	-0.005776	0.204860	-0.140023
H188	H	0.494224	0.704860	0.359977
H189	H	-0.001986	0.051328	-0.141458
H190	H	0.498014	0.551328	0.358542
H191	H	0.052866	0.096411	-0.178036
H192	H	0.552866	0.596411	0.321964
C193	C	0.634375	-0.204656	-0.000105
C194	C	1.134375	0.295344	0.499895
C195	C	0.689175	-0.264088	-0.000106
C196	C	1.189175	0.235912	0.499894
H197	H	0.591031	-0.225165	-0.000108
H198	H	1.091031	0.274835	0.499892
H199	H	0.637451	-0.174258	0.042123
H200	H	1.137451	0.325742	0.542123
H201	H	0.637475	-0.174245	-0.042338
H202	H	1.137475	0.325755	0.457662
H203	H	0.686078	-0.294496	0.042130
H204	H	1.186078	0.205504	0.542130
H205	H	0.686098	-0.294499	-0.042338
H206	H	1.186098	0.205501	0.457662
C207	C	0.688422	-0.052420	-0.062353
C208	C	1.188422	0.447580	0.437647
C209	C	0.691609	-0.098377	-0.000099
C210	C	1.191609	0.401623	0.499901
H211	H	0.645861	-0.019365	-0.062352
H212	H	1.145861	0.480635	0.437648
H213	H	0.726622	-0.023127	-0.062351
H214	H	1.226622	0.476873	0.437649
H215	H	0.690609	-0.083605	-0.104577
H216	H	1.190609	0.416395	0.395423
H217	H	0.689427	-0.067192	0.042126
H218	H	1.189427	0.432808	0.542126
H219	H	0.653398	-0.127673	-0.000094
H220	H	1.153398	0.372327	0.499906
C221	C	0.125775	0.097561	0.196387
C222	C	0.625775	0.597561	0.696387
C223	C	0.172889	0.098324	0.138450
C224	C	0.672889	0.598324	0.638450
H225	H	0.150343	0.097947	0.241187
H226	H	0.650343	0.597947	0.741187
H227	H	0.092144	0.141232	0.193639
H228	H	0.592144	0.641232	0.693639
H229	H	0.102897	0.052977	0.193634
H230	H	0.602897	0.552977	0.693634
H231	H	0.195764	0.142911	0.141200
H232	H	0.695764	0.642911	0.641200
H233	H	0.206533	0.054649	0.141200
H234	H	0.706533	0.554649	0.641200
H235	H	0.264406	0.019192	0.091633
H236	H	0.764406	0.519192	0.591633
H237	H	0.701540	-0.652776	-0.000105
H238	H	1.201540	-0.152776	0.499895
H239	H	0.931203	-0.686334	-0.000128
H240	H	1.431203	-0.186334	0.499872
H241	H	0.906218	0.007087	0.665832
H242	H	1.406218	0.507087	1.165832
H243	H	0.395830	0.021305	0.091651
H244	H	0.895830	0.521305	0.591651
C245	C	0.961199	-0.052919	0.295215
C246	C	1.461199	0.447081	0.795215
C247	C	0.919666	-0.007624	0.344771
C248	C	1.419666	0.492376	0.844771
H249	H	0.993314	-0.087932	0.321075
H250	H	1.493314	0.412068	0.821075
H251	H	0.932334	-0.080062	0.265500
H252	H	1.432334	0.419938	0.765500
H253	H	0.986126	-0.021479	0.265468
H254	H	1.486126	0.478521	0.765468
H255	H	0.894735	-0.039064	0.374515
H256	H	1.394735	0.460936	0.874515
H257	H	0.948535	0.019521	0.374498
H258	H	1.448535	0.519521	0.874498
C259	C	0.493137	0.038295	0.178460
C260	C	0.993137	0.538295	0.678460
C261	C	0.467706	0.103061	0.138482
C262	C	0.967706	0.603061	0.638482
H263	H	0.468544	0.037901	0.223258
H264	H	0.968544	0.537901	0.723258
H265	H	0.486649	-0.006015	0.151338
H266	H	0.986649	0.493985	0.651338
H267	H	0.541464	0.039082	0.187905
H268	H	1.041464	0.539082	0.687905
H269	H	0.419380	0.102271	0.129032
H270	H	0.919380	0.602271	0.629032
H271	H	0.474188	0.147382	0.165609
H272	H	0.974188	0.647382	0.665609
H273	H	0.906219	0.007083	0.804119
H274	H	1.406219	0.507083	1.304119
C275	C	0.669364	0.041128	0.142531
C276	C	1.169364	0.541128	0.642531
C277	C	0.619784	0.105510	0.138496
C278	C	1.119784	0.605510	0.638496
H279	H	0.693933	0.041523	0.187329
H280	H	1.193933	0.541523	0.687329
H281	H	0.646477	-0.003442	0.139790
H282	H	1.146477	0.496558	0.639790
H283	H	0.701315	0.041650	0.103215
H284	H	1.201315	0.541650	0.603215
H285	H	0.587830	0.104985	0.177809
H286	H	1.087830	0.604985	0.677809
H287	H	0.642672	0.150092	0.141244
H288	H	1.142672	0.650092	0.641244
H289	H	0.939141	-0.145821	-0.000111
H290	H	1.439141	0.354179	0.499889
C291	C	1.011212	-0.259713	-0.000111
C292	C	1.511212	0.240287	0.499889
C293	C	0.954907	-0.302913	-0.000116
C294	C	1.454907	0.197087	0.499884
H295	H	1.053771	-0.292773	-0.000106
H296	H	1.553771	0.207227	0.499894
H297	H	1.009043	-0.228537	-0.042338
H298	H	1.509043	0.271463	0.457662
H299	H	1.009013	-0.228541	0.042122
H300	H	1.509013	0.271459	0.542122
H301	H	0.957102	-0.334081	-0.042353
H302	H	1.457102	0.165919	0.457647
H303	H	0.957077	-0.334103	0.042115
H304	H	1.457077	0.165897	0.542115
H305	H	0.734479	0.194314	0.333951
H306	H	1.234479	0.694314	0.833951
H307	H	0.031136	0.096059	0.119626
H308	H	0.531136	0.596059	0.619626
H309	H	0.837091	-0.024408	0.569048
H310	H	1.337091	0.475592	1.069048
H311	H	0.933306	-0.543117	-0.000124
H312	H	1.433306	-0.043117	0.499876
H313	H	0.734518	0.194325	0.804162
H314	H	1.234518	0.694325	1.304162
C315	C	0.678483	0.169010	0.611202
C316	C	1.178483	0.669010	1.111202
C317	C	0.721030	0.209033	0.655008
C318	C	1.221030	0.709033	1.155008
H319	H	0.646370	0.204032	0.585349
H320	H	1.146370	0.704032	1.085349
H321	H	0.706660	0.138282	0.577593
H322	H	1.206660	0.638282	1.077593
H323	H	0.653554	0.137582	0.640961
H324	H	1.153554	0.637582	1.140961
H325	H	0.745962	0.240456	0.625249
H326	H	1.245962	0.740456	1.125249
H327	H	0.692848	0.239773	0.688621
H328	H	1.192848	0.739773	1.188621
C329	C	0.572803	0.104752	-0.196605
C330	C	1.072803	0.604752	0.303395
C331	C	0.619878	0.105508	-0.138661
C332	C	1.119878	0.605508	0.361339
H333	H	0.597398	0.105153	-0.241401
H334	H	1.097398	0.605153	0.258599
H335	H	0.549927	0.060173	-0.193858
H336	H	1.049927	0.560173	0.306142
H337	H	0.539164	0.148428	-0.193859
H338	H	1.039164	0.648428	0.306141
H339	H	0.653514	0.061829	-0.141404
H340	H	1.153514	0.561829	0.358596
H341	H	0.642765	0.150091	-0.141410
H342	H	1.142765	0.650091	0.358590
C343	C	0.736338	0.285417	0.561472
C344	C	1.236338	0.785417	1.061472
C345	C	0.800987	0.245471	0.579876
C346	C	1.300987	0.745471	1.079876
H347	H	0.730075	0.332215	0.587331
H348	H	1.230075	0.832215	1.087331
H349	H	0.735017	0.295278	0.510624
H350	H	1.235017	0.795278	1.010624
H351	H	0.700077	0.255850	0.573991
H352	H	1.200077	0.755850	1.073991
H353	H	0.837248	0.275035	0.567352
H354	H	1.337248	0.775035	1.067352
H355	H	0.802314	0.235612	0.630735
H356	H	1.302314	0.735612	1.130735
C357	C	0.854470	0.289008	0.438253
C358	C	1.354470	0.789008	0.938253
C359	C	0.800988	0.245464	0.419859
C360	C	1.300988	0.745464	0.919859
H361	H	0.848219	0.335799	0.412375
H362	H	1.348219	0.835799	0.912375
H363	H	0.853147	0.298882	0.489096
H364	H	1.353147	0.798882	0.989096
H365	H	0.898314	0.261874	0.425749
H366	H	1.398314	0.761874	0.925749
H367	H	0.757144	0.272595	0.432368
H368	H	1.257144	0.772595	0.932368
H369	H	0.802305	0.235591	0.369004
H370	H	1.302305	0.735591	0.869004
C371	C	0.679449	0.254313	0.234355
C372	C	1.179449	0.754313	0.734355
C373	C	0.720978	0.209017	0.184796
C374	C	1.220978	0.709017	0.684796
H375	H	0.647340	0.289335	0.208496
H376	H	1.147340	0.789335	0.708496
H377	H	0.654521	0.222880	0.264096
H378	H	1.154521	0.722880	0.764096
H379	H	0.708322	0.281453	0.264074
H380	H	1.208322	0.781453	0.764074
H381	H	0.692105	0.181872	0.155080
H382	H	1.192105	0.681872	0.655080
H383	H	0.745908	0.240454	0.155042
H384	H	1.245908	0.740454	0.655042
