data_functionalizedCrystal
_audit_creation_method	'MofGen! by Chris Wilmer'
_symmetry_space_group_name_H-M	'P1'
_symmetry_Int_Tables_number	1
_symmetry_cell_setting	triclinic
loop_
_symmetry_equiv_pos_as_xyz
  x,y,z
_cell_length_a	16.974800
_cell_length_b	14.044220
_cell_length_c	16.053810
_cell_angle_alpha	87.189008
_cell_angle_beta	88.912688
_cell_angle_gamma	88.279480
loop_
_atom_site_label
_atom_site_type_symbol
_atom_site_fract_x
_atom_site_fract_y
_atom_site_fract_z
O1	O	1.057574	0.120850	-0.002053
O2	O	1.390907	0.454184	0.331280
O3	O	1.724241	0.787517	0.664613
O4	O	0.829129	0.135360	0.013390
O5	O	1.162463	0.468693	0.346723
O6	O	1.495796	0.802026	0.680057
O7	O	0.939922	-0.009888	0.005892
O8	O	1.273256	0.323445	0.339225
O9	O	1.606589	0.656779	0.672559
O10	O	0.946781	0.266098	0.005445
O11	O	1.280114	0.599431	0.338778
O12	O	1.613448	0.932764	0.672111
O13	O	0.933851	-0.001896	-0.132556
O14	O	1.267184	0.331438	0.200777
O15	O	1.600518	0.664771	0.534111
O16	O	0.823058	0.143352	-0.125058
O17	O	1.156391	0.476685	0.208275
O18	O	1.489725	0.810019	0.541609
O19	O	1.051503	0.128843	-0.140501
O20	O	1.384836	0.462176	0.192832
O21	O	1.718169	0.795509	0.526166
Zn22	Zn	0.936316	0.137366	-0.154761
Zn23	Zn	1.269650	0.470699	0.178572
Zn24	Zn	1.602983	0.804033	0.511906
Zn25	Zn	0.944316	0.126836	0.027650
Zn26	Zn	1.277649	0.460169	0.360983
Zn27	Zn	1.610982	0.793503	0.694317
O28	O	0.940710	0.274090	-0.133003
O29	O	1.274043	0.607423	0.200330
O30	O	1.607376	0.940757	0.533664
C31	C	0.796681	0.138657	-0.053846
C32	C	1.130015	0.471991	0.279488
C33	C	1.463348	0.805324	0.612821
C34	C	0.709040	0.136566	-0.047921
C35	C	1.042374	0.469899	0.285412
C36	C	1.375707	0.803232	0.618745
C37	C	0.664562	0.139937	-0.120608
C38	C	0.997895	0.473271	0.212725
C39	C	1.331228	0.806604	0.546059
C40	C	0.582214	0.137957	-0.115044
C41	C	0.915547	0.471290	0.218290
C42	C	1.248881	0.804624	0.551623
C43	C	0.544347	0.132611	-0.036792
C44	C	0.877680	0.465945	0.296541
C45	C	1.211013	0.799278	0.629875
C46	C	0.588832	0.129237	0.035900
C47	C	0.922165	0.462570	0.369233
C48	C	1.255498	0.795903	0.702567
C49	C	0.671178	0.131210	0.030335
C50	C	1.004511	0.464544	0.363668
C51	C	1.337845	0.797877	0.697002
C52	C	0.298423	0.126235	-0.012056
C53	C	0.631756	0.459568	0.321278
C54	C	0.965090	0.792902	0.654611
C55	C	0.216071	0.124264	-0.006496
C56	C	0.549404	0.457598	0.326837
C57	C	0.882738	0.790931	0.660171
C58	C	0.209459	0.132983	-0.157440
C59	C	0.542792	0.466316	0.175893
C60	C	0.876126	0.799649	0.509226
C61	C	0.291807	0.134962	-0.162998
C62	C	0.625140	0.468295	0.170335
C63	C	0.958474	0.801628	0.503668
C64	C	0.336285	0.131582	-0.090306
C65	C	0.669618	0.464915	0.243027
C66	C	1.002951	0.798249	0.576360
N67	N	0.460174	0.130590	-0.031103
N68	N	0.793508	0.463923	0.302231
N69	N	1.126841	0.797257	0.635564
N70	N	0.420456	0.133597	-0.095997
N71	N	0.753789	0.466930	0.237337
N72	N	1.087122	0.800263	0.570670
C73	C	0.933885	-0.041214	-0.063129
C74	C	1.267218	0.292120	0.270204
C75	C	1.600551	0.625453	0.603537
C76	C	0.924931	-0.146462	-0.062525
C77	C	1.258264	0.186871	0.270808
C78	C	1.591597	0.520204	0.604142
C79	C	0.908561	-0.339166	-0.061406
C80	C	1.241894	-0.005832	0.271927
C81	C	1.575227	0.327501	0.605260
C82	C	0.972068	-0.396638	-0.065697
C83	C	1.305402	-0.063305	0.267636
C84	C	1.638735	0.270028	0.600970
C85	C	0.962960	-0.503865	-0.065075
C86	C	1.296293	-0.170532	0.268259
C87	C	1.629626	0.162802	0.601592
C88	C	0.917668	-0.231929	-0.062029
C89	C	1.251001	0.101405	0.271305
C90	C	1.584335	0.434738	0.604638
C91	C	1.083951	0.125544	-0.073264
C92	C	1.417284	0.458878	0.260070
C93	C	1.750618	0.792211	0.593403
C94	C	1.171592	0.127636	-0.079183
C95	C	1.504925	0.460969	0.254151
C96	C	1.838259	0.794303	0.587484
C97	C	0.946747	0.305416	-0.063980
C98	C	1.280081	0.638749	0.269353
C99	C	1.613414	0.972082	0.602687
C100	C	0.955702	0.410664	-0.064579
C101	C	1.289035	0.743997	0.268755
C102	C	1.622369	1.077331	0.602088
N103	N	0.930863	0.144552	-0.279252
N104	N	1.264196	0.477886	0.054081
N105	N	1.597530	0.811219	0.387415
C106	C	0.902619	0.181430	-0.800973
C107	C	1.235952	0.514764	-0.467639
C108	C	1.569286	0.848097	-0.134306
C109	C	0.906452	0.176422	-0.713826
C110	C	1.239786	0.509755	-0.380492
C111	C	1.573119	0.843088	-0.047159
C112	C	0.957446	0.109629	-0.673567
C113	C	1.290779	0.442962	-0.340233
C114	C	1.624113	0.776296	-0.006900
C115	C	1.004604	0.047834	-0.720460
C116	C	1.337937	0.381168	-0.387126
C117	C	1.671271	0.714501	-0.053793
C118	C	1.000766	0.052839	-0.807605
C119	C	1.334099	0.386173	-0.474272
C120	C	1.667433	0.719506	-0.140938
C121	C	0.974183	0.087762	-0.413290
C122	C	1.307516	0.421096	-0.079957
C123	C	1.640850	0.754429	0.253376
C124	C	0.978019	0.082764	-0.326139
C125	C	1.311352	0.416098	0.007195
C126	C	1.644686	0.749431	0.340528
C127	C	0.879866	0.211351	-0.319511
C128	C	1.213199	0.544684	0.013823
C129	C	1.546532	0.878018	0.347156
C130	C	0.876036	0.216354	-0.406658
C131	C	1.209369	0.549687	-0.073325
C132	C	1.542702	0.883020	0.260008
C133	C	0.923191	0.154556	-0.453543
C134	C	1.256524	0.487889	-0.120210
C135	C	1.589857	0.821223	0.213124
N136	N	0.961367	0.104510	-0.584488
N137	N	1.294701	0.437843	-0.251155
N138	N	1.628034	0.771176	0.082178
N139	N	0.919265	0.159671	-0.542620
N140	N	1.252598	0.493005	-0.209286
N141	N	1.585931	0.826338	0.124047
N142	N	0.949775	0.119642	0.152141
N143	N	1.283108	0.452976	0.485474
N144	N	1.616442	0.786309	0.818807
H145	H	0.185242	0.119914	0.057229
H146	H	0.518575	0.453247	0.390562
H147	H	0.851909	0.786581	0.723896
H148	H	0.546003	0.140687	-0.174233
H149	H	0.879337	0.474020	0.159100
H150	H	1.212670	0.807353	0.492434
H151	H	1.033282	-0.365315	-0.069779
H152	H	1.366615	-0.031982	0.263554
H153	H	1.699948	0.301351	0.596887
H154	H	1.012580	0.037446	-0.451457
H155	H	1.345913	0.370779	-0.118124
H156	H	1.679246	0.704112	0.215209
H157	H	0.847355	-0.370490	-0.057267
H158	H	1.180688	-0.037157	0.276067
H159	H	1.514021	0.296177	0.609400
H160	H	0.861098	0.235824	-0.833746
H161	H	1.194431	0.569157	-0.500412
H162	H	1.527765	0.902491	-0.167079
C163	C	0.854677	0.244506	-0.662261
C164	C	1.188010	0.577839	-0.328928
C165	C	1.521344	0.911172	0.004406
N166	N	0.815713	0.295829	-0.623425
N167	N	1.149047	0.629163	-0.290092
N168	N	1.482380	0.962496	0.043241
H169	H	0.173236	0.135733	-0.216622
H170	H	0.506570	0.469066	0.116712
H171	H	0.839903	0.802399	0.450045
H172	H	0.834513	0.270742	-0.439435
H173	H	1.167846	0.604075	-0.106102
H174	H	1.501179	0.937408	0.227232
H175	H	0.841474	0.261663	-0.281329
H176	H	1.174807	0.594996	0.052004
H177	H	1.508140	0.928330	0.385338
C178	C	1.034116	0.009281	-0.281856
C179	C	1.367449	0.342614	0.051477
C180	C	1.700782	0.675947	0.384811
N181	N	1.076366	-0.046064	-0.248502
N182	N	1.409699	0.287269	0.084831
N183	N	1.743033	0.620603	0.418165
C184	C	1.052642	-0.015132	-0.859180
C185	C	1.385975	0.318201	-0.525846
C186	C	1.719309	0.651535	-0.192513
N187	N	1.091715	-0.066332	-0.898025
N188	N	1.425049	0.267001	-0.564692
N189	N	1.758382	0.600335	-0.231358
C190	C	0.706208	0.145817	-0.206692
C191	C	1.039541	0.479150	0.126642
C192	C	1.372874	0.812484	0.459975
N193	N	0.737574	0.150241	-0.271532
N194	N	1.070907	0.483574	0.061801
N195	N	1.404240	0.816908	0.395134
C196	C	0.333455	0.140837	-0.249081
C197	C	0.666788	0.474170	0.084252
C198	C	1.000121	0.807504	0.417585
N199	N	0.364824	0.145264	-0.313920
N200	N	0.698157	0.478597	0.019413
N201	N	1.031491	0.811930	0.352746
C202	C	0.347339	0.122509	0.067909
C203	C	0.680672	0.455842	0.401242
C204	C	1.014005	0.789175	0.734575
N205	N	0.384185	0.119698	0.128142
N206	N	0.717518	0.453032	0.461475
N207	N	1.050851	0.786365	0.794808
C208	C	0.547175	0.123354	0.121978
C209	C	0.880508	0.456687	0.455311
C210	C	1.213841	0.790021	0.788645
N211	N	0.515799	0.118926	0.186814
N212	N	0.849133	0.452260	0.520147
N213	N	1.182466	0.785593	0.853480
H214	H	1.046121	-0.006555	-0.687676
H215	H	1.379455	0.326779	-0.354342
H216	H	1.712788	0.660112	-0.021009
H217	H	0.707392	0.128467	0.089524
H218	H	1.040725	0.461800	0.422858
H219	H	1.374058	0.795133	0.756191
