data_functionalizedCrystal
_audit_creation_method	'MofGen! by Chris Wilmer'
_symmetry_space_group_name_H-M	'P1'
_symmetry_Int_Tables_number	1
_symmetry_cell_setting	triclinic
loop_
_symmetry_equiv_pos_as_xyz
  x,y,z
_cell_length_a	13.897448
_cell_length_b	12.759401
_cell_length_c	12.759393
_cell_angle_alpha	90.020566
_cell_angle_beta	89.967728
_cell_angle_gamma	89.984099
loop_
_atom_site_label
_atom_site_type_symbol
_atom_site_fract_x
_atom_site_fract_y
_atom_site_fract_z
Zn1	Zn	-0.384014	-1.606244	-0.593997
Zn2	Zn	-0.545341	-1.606126	-0.418311
Zn3	Zn	-0.384056	-1.430543	-0.418333
Zn4	Zn	-0.545264	-1.430526	-0.593950
O5	O	-0.464669	-1.518360	-0.506148
O6	O	-0.405429	-1.753250	-0.570702
O7	O	-0.523996	-1.582793	-0.271293
O8	O	-0.249069	-1.453907	-0.441664
O9	O	-0.523955	-1.753163	-0.441627
O10	O	-0.249038	-1.582994	-0.570723
O11	O	-0.405501	-1.453793	-0.271309
O12	O	-0.405426	-1.283520	-0.441618
O13	O	-0.523824	-1.453878	-0.740977
O14	O	-0.523865	-1.283507	-0.570643
O15	O	-0.405355	-1.582977	-0.741012
O16	O	-0.680312	-1.582776	-0.441581
O17	O	-0.680256	-1.453763	-0.570622
C18	C	-0.464643	-1.245393	-0.506129
C19	C	-0.464655	-1.128616	-0.506145
C20	C	-0.403048	-1.073800	-0.573458
C21	C	-0.403054	-0.964076	-0.573463
C22	C	-0.526282	-0.963994	-0.438841
C23	C	-0.526270	-1.073716	-0.438831
C24	C	-0.715283	-1.518283	-0.506117
C25	C	-0.822497	-1.518347	-0.506139
C26	C	-1.018792	-1.518457	-0.506205
C27	C	-0.909560	-1.518393	-0.506172
C28	C	-0.213076	-1.518466	-0.506201
C29	C	-0.105862	-1.518511	-0.506224
C30	C	-0.464576	-1.518439	-0.780181
C31	C	-0.464537	-1.518472	-0.896958
C32	C	-0.464687	-0.792393	-0.506164
C33	C	-0.464672	-0.909170	-0.506160
C34	C	-0.402840	-1.585699	-0.951839
C35	C	-0.402798	-1.585717	-1.061564
C36	C	-0.526159	-1.451278	-1.061515
C37	C	-0.526195	-1.451255	-0.951793
C38	C	-0.464691	-1.518342	-0.233180
C39	C	-0.464459	-1.518512	-0.116404
H40	H	-0.352886	-0.919449	-0.628274
Br41	Br	-0.319070	-1.676966	-1.136042
H42	H	-0.352873	-1.118496	-0.628266
H43	H	-0.576448	-0.919281	-0.384037
Br44	Br	-0.609872	-1.148116	-0.347457
Br45	Br	-0.319160	-1.676919	-0.877424
H46	H	-0.576361	-1.396554	-1.106175
Br47	Br	-0.609924	-1.360002	-0.877303
