data_functionalizedCrystal
_audit_creation_method	'MofGen! by Chris Wilmer'
_symmetry_space_group_name_H-M	'P1'
_symmetry_Int_Tables_number	1
_symmetry_cell_setting	triclinic
loop_
_symmetry_equiv_pos_as_xyz
  x,y,z
_cell_length_a	19.077236
_cell_length_b	19.121063
_cell_length_c	19.076919
_cell_angle_alpha	85.393653
_cell_angle_beta	90.112677
_cell_angle_gamma	94.855924
loop_
_atom_site_label
_atom_site_type_symbol
_atom_site_fract_x
_atom_site_fract_y
_atom_site_fract_z
Zn1	Zn	1.046920	-0.255828	0.451002
Zn2	Zn	1.380253	0.077505	0.784335
Zn3	Zn	1.713586	0.410838	1.117669
Zn4	Zn	1.046539	-0.368770	0.338113
Zn5	Zn	1.379873	-0.035437	0.671447
Zn6	Zn	1.713206	0.297896	1.004780
Zn7	Zn	0.934152	-0.255459	0.328767
Zn8	Zn	1.267485	0.077875	0.662100
Zn9	Zn	1.600818	0.411208	0.995434
Zn10	Zn	0.923941	-0.378172	0.451236
Zn11	Zn	1.257274	-0.044839	0.784569
Zn12	Zn	1.590607	0.288494	1.117902
O13	O	0.987888	-0.314557	0.392279
O14	O	1.321221	0.018776	0.725613
O15	O	1.654554	0.352109	1.058946
O16	O	1.145371	-0.267030	0.439841
O17	O	1.478704	0.066303	0.773174
O18	O	1.812038	0.399637	1.106507
O19	O	1.035745	-0.349650	0.238375
O20	O	1.369078	-0.016316	0.571709
O21	O	1.702412	0.317017	0.905042
O22	O	0.953543	-0.156885	0.340972
O23	O	1.286876	0.176448	0.674306
O24	O	1.620210	0.509782	1.007639
O25	O	1.145091	-0.350008	0.356902
O26	O	1.478425	-0.016675	0.690235
O27	O	1.811758	0.316659	1.023568
O28	O	1.036393	-0.157156	0.430778
O29	O	1.369727	0.176177	0.764111
O30	O	1.703060	0.509510	1.097445
O31	O	0.953174	-0.266400	0.231509
O32	O	1.286508	0.066933	0.564842
O33	O	1.619841	0.400266	0.898175
O34	O	0.834295	-0.275517	0.341199
O35	O	1.167629	0.057816	0.674532
O36	O	1.500962	0.391150	1.007866
O37	O	0.936140	-0.366033	0.549703
O38	O	1.269473	-0.032699	0.883036
O39	O	1.602806	0.300634	1.216369
O40	O	0.826793	-0.365674	0.431176
O41	O	1.160127	-0.032341	0.764510
O42	O	1.493460	0.300992	1.097843
O43	O	1.026492	-0.276147	0.549531
O44	O	1.359825	0.057186	0.882864
O45	O	1.693159	0.390520	1.216198
O46	O	1.025844	-0.468640	0.357129
O47	O	1.359177	-0.135307	0.690462
O48	O	1.692510	0.198026	1.023795
O49	O	0.935771	-0.475548	0.440239
O50	O	1.269104	-0.142215	0.773573
O51	O	1.602438	0.191119	1.106906
C52	C	0.805004	-0.321576	0.385199
C53	C	1.138337	0.011757	0.718533
C54	C	1.471671	0.345090	1.051866
C55	C	0.726764	-0.324597	0.382188
C56	C	1.060097	0.008736	0.715521
C57	C	1.393431	0.342070	1.048855
C58	C	0.690147	-0.282888	0.424026
C59	C	1.023480	0.050445	0.757360
C60	C	1.356813	0.383779	1.090693
C61	C	0.616632	-0.285723	0.421191
C62	C	0.949966	0.047611	0.754524
C63	C	1.283299	0.380944	1.087857
C64	C	0.579736	-0.330270	0.376519
C65	C	0.913069	0.003063	0.709853
C66	C	1.246403	0.336397	1.043186
C67	C	0.616359	-0.371980	0.334676
C68	C	0.949692	-0.038647	0.668009
C69	C	1.283025	0.294686	1.001343
C70	C	0.689872	-0.369142	0.337509
C71	C	1.023205	-0.035808	0.670842
C72	C	1.356539	0.297525	1.004175
C73	C	0.359860	-0.343381	0.363406
C74	C	0.693193	-0.010047	0.696739
C75	C	1.026527	0.323286	1.030073
C76	C	0.286341	-0.346218	0.360578
C77	C	0.619675	-0.012884	0.693911
C78	C	0.953008	0.320449	1.027245
C79	C	0.286620	-0.259959	0.447092
C80	C	0.619954	0.073375	0.780425
C81	C	0.953287	0.406708	1.113759
C82	C	0.360135	-0.257127	0.449924
C83	C	0.693468	0.076206	0.783257
C84	C	1.026801	0.409540	1.116591
C85	C	0.396751	-0.298835	0.408078
C86	C	0.730084	0.034499	0.741411
C87	C	1.063418	0.367832	1.074745
N88	N	0.504593	-0.333170	0.373621
N89	N	0.837926	0.000163	0.706955
N90	N	1.171259	0.333497	1.040288
N91	N	0.471894	-0.295931	0.410973
N92	N	0.805227	0.037403	0.744306
N93	N	1.138560	0.370736	1.077639
C94	C	0.979677	-0.497666	0.399740
C95	C	1.313010	-0.164333	0.733073
C96	C	1.646343	0.169001	1.066406
C97	C	0.976227	-0.575999	0.402957
C98	C	1.309560	-0.242666	0.736290
C99	C	1.642894	0.090668	1.069624
C100	C	1.021536	-0.609180	0.361236
C101	C	1.354869	-0.275847	0.694569
C102	C	1.688203	0.057486	1.027903
C103	C	1.018296	-0.682783	0.364266
C104	C	1.351629	-0.349450	0.697600
C105	C	1.684963	-0.016116	1.030933
C106	C	0.969743	-0.723203	0.409014
C107	C	1.303076	-0.389869	0.742348
C108	C	1.636410	-0.056536	1.075681
C109	C	0.924432	-0.690016	0.450740
C110	C	1.257765	-0.356683	0.784073
C111	C	1.591099	-0.023350	1.117407
C112	C	0.927676	-0.616415	0.447713
C113	C	1.261009	-0.283082	0.781046
C114	C	1.594343	0.050252	1.114380
C115	C	0.957603	-0.945612	0.420321
C116	C	1.290937	-0.612278	0.753654
C117	C	1.624270	-0.278945	1.086987
C118	C	0.954361	-1.019218	0.423343
C119	C	1.287695	-0.685884	0.756676
C120	C	1.621028	-0.352551	1.090010
C121	C	1.048226	-1.011979	0.336870
C122	C	1.381560	-0.678646	0.670203
C123	C	1.714893	-0.345313	1.003536
C124	C	1.051463	-0.938377	0.333843
C125	C	1.384797	-0.605044	0.667177
C126	C	1.718130	-0.271710	1.000510
C127	C	1.006155	-0.905197	0.375572
C128	C	1.339488	-0.571864	0.708905
C129	C	1.672822	-0.238530	1.042238
C130	C	0.966428	-0.798436	0.412111
C131	C	1.299762	-0.465103	0.745445
C132	C	1.633095	-0.131770	1.078778
C133	C	1.009473	-0.829965	0.372478
C134	C	1.342807	-0.496631	0.705811
C135	C	1.676140	-0.163298	1.039145
C136	C	1.171486	-0.307511	0.399388
C137	C	1.504819	0.025822	0.732721
C138	C	1.838152	0.359155	1.066054
C139	C	1.249724	-0.304509	0.402417
C140	C	1.583058	0.028824	0.735750
C141	C	1.916391	0.362158	1.069083
C142	C	0.980219	-0.322180	0.575870
C143	C	1.313553	0.011153	0.909204
C144	C	1.646886	0.344487	1.242537
C145	C	0.976952	-0.325428	0.654106
C146	C	1.310285	0.007905	0.987439
C147	C	1.643618	0.341239	1.320773
C148	C	0.996150	-0.130734	0.384806
C149	C	1.329483	0.202599	0.718140
C150	C	1.662816	0.535933	1.051473
C151	C	0.999670	-0.052399	0.381622
C152	C	1.333004	0.280934	0.714955
C153	C	1.666337	0.614267	1.048289
C154	C	0.995569	-0.306912	0.209402
C155	C	1.328902	0.026421	0.542736
C156	C	1.662236	0.359754	0.876069
C157	C	0.998982	-0.303460	0.131164
C158	C	1.332315	0.029873	0.464498
C159	C	1.665649	0.363206	0.797831
C160	C	1.022455	-0.280158	0.690773
C161	C	1.355789	0.053176	1.024106
C162	C	1.689122	0.386509	1.357439
C163	C	1.019376	-0.283207	0.764283
C164	C	1.352710	0.050126	1.097616
C165	C	1.686043	0.383459	1.430950
C166	C	0.970797	-0.331531	0.801125
C167	C	1.304130	0.001802	1.134459
C168	C	1.637463	0.335135	1.467792
C169	C	0.925288	-0.376804	0.764453
C170	C	1.258621	-0.043471	1.097786
C171	C	1.591954	0.289863	1.431120
C172	C	0.928364	-0.373750	0.690944
C173	C	1.261697	-0.040417	1.024277
C174	C	1.595031	0.292916	1.357611
C175	C	0.956549	-0.345679	1.020983
C176	C	1.289883	-0.012346	1.354316
C177	C	1.623216	0.320988	1.687650
C178	C	0.953478	-0.348731	1.094497
C179	C	1.286812	-0.015397	1.427831
C180	C	1.620145	0.317936	1.761164
C181	C	1.047566	-0.255133	1.094322
C182	C	1.380900	0.078201	1.427656
C183	C	1.714233	0.411534	1.760989
C184	C	1.050641	-0.252086	1.020812
C185	C	1.383974	0.081247	1.354145
C186	C	1.717308	0.414580	1.687479
C187	C	1.005130	-0.297356	0.984146
C188	C	1.338463	0.035977	1.317479
C189	C	1.671796	0.369310	1.650813
N190	N	0.967650	-0.334651	0.876264
N191	N	1.300983	-0.001318	1.209598
N192	N	1.634316	0.332015	1.542931
N193	N	1.008274	-0.294232	0.909008
N194	N	1.341607	0.039101	1.242341
N195	N	1.674940	0.372434	1.575674
H196	H	0.720182	-0.246615	0.460405
H197	H	1.053515	0.086719	0.793738
H198	H	1.386849	0.420052	1.127071
H199	H	0.913916	-0.388084	1.124492
H200	H	1.247250	-0.054751	1.457826
H201	H	1.580583	0.278583	1.791159
N202	N	0.879278	-0.422576	0.651399
N203	N	1.212611	-0.089243	0.984732
N204	N	1.545944	0.244090	1.318066
H205	H	0.887408	-0.473045	0.666660
H206	H	1.220741	-0.139711	0.999993
H207	H	1.554074	0.193622	1.333327
H208	H	0.888616	-0.413250	0.599252
H209	H	1.221949	-0.079916	0.932585
H210	H	1.555282	0.253417	1.265918
H211	H	0.586312	-0.408248	0.298300
H212	H	0.919646	-0.074915	0.631633
H213	H	1.252979	0.258418	0.964967
N214	N	0.901995	-1.062816	0.471613
N215	N	1.235328	-0.729483	0.804946
N216	N	1.568661	-0.396150	1.138279
H217	H	0.869244	-1.093454	0.442975
H218	H	1.202578	-0.760120	0.776308
H219	H	1.535911	-0.426787	1.109642
H220	H	0.873834	-1.030583	0.497580
H221	H	1.207168	-0.697249	0.830913
H222	H	1.540501	-0.363916	1.164246
N223	N	0.577138	-0.240723	0.466302
N224	N	0.910472	0.092611	0.799635
N225	N	1.243805	0.425944	1.132969
H226	H	0.611667	-0.212071	0.495030
H227	H	0.945000	0.121263	0.828363
H228	H	1.278334	0.454596	1.161696
H229	H	0.543990	-0.271977	0.498826
H230	H	0.877324	0.061356	0.832160
H231	H	1.210657	0.394689	1.165493
N232	N	0.246537	-0.394263	0.312396
N233	N	0.579870	-0.060930	0.645729
N234	N	0.913203	0.272403	0.979063
H235	H	0.256625	-0.444593	0.325785
H236	H	0.589958	-0.111260	0.659118
H237	H	0.923291	0.222074	0.992452
H238	H	0.261923	-0.380597	0.262181
H239	H	0.595256	-0.047263	0.595515
H240	H	0.928590	0.286070	0.928848
N241	N	0.872895	-0.428930	0.804189
N242	N	1.206229	-0.095596	1.137522
N243	N	1.539562	0.237737	1.470856
H244	H	0.844535	-0.457145	0.769804
H245	H	1.177868	-0.123811	1.103137
H246	H	1.511202	0.209522	1.436471
H247	H	0.840334	-0.402761	0.832261
H248	H	1.173667	-0.069428	1.165595
H249	H	1.507000	0.263906	1.498928
H250	H	0.890782	-0.589400	0.481688
H251	H	1.224115	-0.256066	0.815021
H252	H	1.557448	0.077267	1.148354
H253	H	1.061070	-0.576275	0.324794
H254	H	1.394403	-0.242942	0.658127
H255	H	1.727737	0.090392	0.991461
H256	H	0.919501	-0.382551	0.991139
H257	H	1.252834	-0.049218	1.324473
H258	H	1.586167	0.284116	1.657806
H259	H	0.390170	-0.220855	0.486303
H260	H	0.723504	0.112479	0.819636
H261	H	1.056837	0.445812	1.152969
N262	N	1.067164	-0.718572	0.319267
N263	N	1.400498	-0.385239	0.652601
N264	N	1.733831	-0.051906	0.985934
H265	H	1.098411	-0.681798	0.290457
H266	H	1.431744	-0.348465	0.623790
H267	H	1.765078	-0.015132	0.957123
H268	H	1.038550	-0.748896	0.286822
H269	H	1.371883	-0.415563	0.620156
H270	H	1.705217	-0.082230	0.953489
N271	N	1.096640	-0.206304	1.133875
N272	N	1.429973	0.127029	1.467208
N273	N	1.763306	0.460363	1.800542
H274	H	1.088503	-0.155838	1.118609
H275	H	1.421836	0.177495	1.451943
H276	H	1.755169	0.510828	1.785276
H277	H	1.146957	-0.214845	1.123466
H278	H	1.480290	0.118489	1.456800
H279	H	1.813623	0.451822	1.790133
H280	H	0.256799	-0.226002	0.481160
H281	H	0.590133	0.107332	0.814493
H282	H	0.923466	0.440665	1.147826
H283	H	1.062017	-0.240809	0.660781
H284	H	1.395350	0.092525	0.994115
H285	H	1.728683	0.425858	1.327448
H286	H	0.920710	-0.918602	0.454296
H287	H	1.254044	-0.585269	0.787629
H288	H	1.587377	-0.251936	1.120963
H289	H	0.389664	-0.377343	0.329333
H290	H	0.722997	-0.044009	0.662666
H291	H	1.056331	0.289324	0.995999
H292	H	0.719685	-0.403105	0.303439
H293	H	1.053018	-0.069772	0.636772
H294	H	1.386352	0.263562	0.970105
H295	H	1.090999	-0.905468	0.297406
H296	H	1.424332	-0.572135	0.630739
H297	H	1.757666	-0.238802	0.964073
H298	H	1.049008	-0.797053	0.336047
H299	H	1.382341	-0.463720	0.669380
H300	H	1.715675	-0.130386	1.002713
H301	H	1.085115	-1.039002	0.302898
H302	H	1.418448	-0.705669	0.636231
H303	H	1.751782	-0.372336	0.969564
N304	N	1.068452	-0.234365	0.803819
N305	N	1.401785	0.098968	1.137152
N306	N	1.735119	0.432301	1.470485
H307	H	1.118790	-0.242847	0.793424
H308	H	1.452123	0.090487	1.126757
H309	H	1.785457	0.423820	1.460090
H310	H	1.059075	-0.243642	0.855964
H311	H	1.392409	0.089691	1.189297
H312	H	1.725742	0.423025	1.522631
N313	N	0.872065	-0.733608	0.499008
N314	N	1.205399	-0.400275	0.832341
N315	N	1.538732	-0.066941	1.165674
H316	H	0.876883	-0.785269	0.494593
H317	H	1.210216	-0.451936	0.827927
H318	H	1.543549	-0.118603	1.161260
H319	H	0.822828	-0.722262	0.485538
H320	H	1.156161	-0.388929	0.818871
H321	H	1.489494	-0.055596	1.152204
N322	N	0.914057	-0.842037	0.460366
N323	N	1.247390	-0.508704	0.793700
N324	N	1.580724	-0.175370	1.127033
H325	H	0.864793	-0.830755	0.446919
H326	H	1.198127	-0.497422	0.780252
H327	H	1.531460	-0.164088	1.113586
H328	H	0.923469	-0.830852	0.510545
H329	H	1.256802	-0.497518	0.843878
H330	H	1.590136	-0.164185	1.177212
N331	N	1.103040	-0.199967	0.981076
N332	N	1.436373	0.133366	1.314410
N333	N	1.769707	0.466699	1.647743
H334	H	1.131400	-0.171750	1.015460
H335	H	1.464734	0.161583	1.348793
H336	H	1.798067	0.494916	1.682126
H337	H	1.077131	-0.167185	0.948139
H338	H	1.410464	0.166148	1.281472
H339	H	1.743798	0.499482	1.614805
