data_functionalizedCrystal
_audit_creation_method	'MofGen! by Chris Wilmer'
_symmetry_space_group_name_H-M	'P1'
_symmetry_Int_Tables_number	1
_symmetry_cell_setting	triclinic
loop_
_symmetry_equiv_pos_as_xyz
  x,y,z
_cell_length_a	21.295419
_cell_length_b	21.295416
_cell_length_c	16.959447
_cell_angle_alpha	90.029154
_cell_angle_beta	89.981387
_cell_angle_gamma	89.954868
loop_
_atom_site_label
_atom_site_type_symbol
_atom_site_fract_x
_atom_site_fract_y
_atom_site_fract_z
Zn1	Zn	0.962320	0.250370	-0.446919
Zn2	Zn	1.462320	0.750370	0.053081
Zn3	Zn	0.962233	0.355641	-0.314735
Zn4	Zn	1.462233	0.855641	0.185265
Zn5	Zn	0.857054	0.250416	-0.314754
Zn6	Zn	1.357054	0.750416	0.185246
Zn7	Zn	0.857012	0.355633	-0.446871
Zn8	Zn	1.357012	0.855633	0.053129
O9	O	0.909655	0.303015	-0.380820
O10	O	1.409655	0.803015	0.119180
O11	O	1.050397	0.264319	-0.429397
O12	O	1.550397	0.764319	0.070603
O13	O	0.948262	0.341705	-0.204127
O14	O	1.448262	0.841705	0.295873
O15	O	0.871071	0.162321	-0.332314
O16	O	1.371071	0.662321	0.167686
O17	O	1.050334	0.341660	-0.332282
O18	O	1.550334	0.841660	0.167718
O19	O	0.948409	0.162287	-0.429415
O20	O	1.448409	0.662287	0.070585
O21	O	0.870987	0.264397	-0.204141
O22	O	1.370987	0.764397	0.295859
O23	O	0.768959	0.264390	-0.332268
O24	O	1.268959	0.764390	0.167732
O25	O	0.871001	0.341647	-0.557489
O26	O	1.371001	0.841647	-0.057489
O27	O	0.768929	0.341692	-0.429333
O28	O	1.268929	0.841692	0.070667
O29	O	0.948369	0.264311	-0.557524
O30	O	1.448369	0.764311	-0.057524
O31	O	0.948222	0.443729	-0.332235
O32	O	1.448222	0.943729	0.167765
O33	O	0.870917	0.443723	-0.429315
O34	O	1.370917	0.943723	0.070685
C35	C	0.746103	0.303045	-0.380798
C36	C	1.246103	0.803045	0.119202
C37	C	0.676135	0.303073	-0.380807
C38	C	1.176135	0.803073	0.119193
C39	C	0.643324	0.262867	-0.431453
C40	C	1.143324	0.762867	0.068547
C41	C	0.577581	0.262850	-0.431456
C42	C	1.077581	0.762850	0.068544
C43	C	0.544652	0.303051	-0.380821
C44	C	1.044652	0.803051	0.119179
C45	C	0.577472	0.343259	-0.330166
C46	C	1.077472	0.843259	0.169834
C47	C	0.643213	0.343271	-0.330158
C48	C	1.143213	0.843271	0.169842
N49	N	0.441378	0.358129	-0.374647
N50	N	0.941378	0.858129	0.125353
N51	N	0.378926	0.358116	-0.374658
N52	N	0.878926	0.858116	0.125342
C53	C	0.346578	0.303018	-0.380839
C54	C	0.846578	0.803018	0.119161
N55	N	0.379040	0.247932	-0.387023
N56	N	0.879040	0.747932	0.112977
N57	N	0.441497	0.247945	-0.387016
N58	N	0.941497	0.747945	0.112984
C59	C	0.473367	0.303043	-0.380823
C60	C	0.973367	0.803043	0.119177
C61	C	0.242481	0.262790	-0.431491
C62	C	0.742481	0.762790	0.068509
C63	C	0.176737	0.262772	-0.431488
C64	C	0.676737	0.762772	0.068512
C65	C	0.176629	0.343187	-0.330202
C66	C	0.676629	0.843187	0.169798
C67	C	0.242371	0.343199	-0.330200
C68	C	0.742371	0.843199	0.169800
C69	C	0.275293	0.303002	-0.380849
C70	C	0.775293	0.803002	0.119151
C71	C	0.909573	0.466567	-0.380785
C72	C	1.409573	0.966567	0.119215
C73	C	0.909595	0.536535	-0.380797
C74	C	1.409595	1.036535	0.119203
C75	C	0.949884	0.569383	-0.330301
C76	C	1.449884	1.069383	0.169699
C77	C	0.949914	0.635126	-0.330322
C78	C	1.449914	1.135126	0.169678
C79	C	0.909643	0.668017	-0.380831
C80	C	1.409643	1.168017	0.119169
C81	C	0.869352	0.635161	-0.431337
C82	C	1.369352	1.135161	0.068663
C83	C	0.869328	0.569419	-0.431319
C84	C	1.369328	1.069419	0.068681
N85	N	0.854576	0.771297	-0.386855
N86	N	1.354576	1.271297	0.113145
N87	N	0.854601	0.833749	-0.386867
N88	N	1.354601	1.333749	0.113133
C89	C	0.909714	0.866092	-0.380887
C90	C	1.409714	1.366092	0.119113
N91	N	0.964804	0.833624	-0.374880
N92	N	1.464804	1.333624	0.125120
N93	N	0.964778	0.771167	-0.374864
N94	N	1.464778	1.271167	0.125136
C95	C	0.909665	0.739303	-0.380856
C96	C	1.409665	1.239303	0.119144
C97	C	0.950039	0.970226	-0.330412
C98	C	1.450039	1.470226	0.169588
C99	C	0.950069	1.035970	-0.330439
C100	C	1.450069	1.535970	0.169561
C101	C	0.869502	1.036003	-0.431449
C102	C	1.369502	1.536003	0.068551
C103	C	0.869477	0.970261	-0.431426
C104	C	1.369477	1.470261	0.068574
C105	C	0.909744	0.937376	-0.380903
C106	C	1.409744	1.437376	0.119097
C107	C	1.073845	0.302985	-0.380843
C108	C	1.573845	0.802985	0.119157
C109	C	1.143813	0.302972	-0.380852
C110	C	1.643813	0.802972	0.119148
C111	C	0.909690	0.302973	-0.586988
C112	C	1.409690	0.802973	-0.086988
C113	C	0.909705	0.302955	-0.674845
C114	C	1.409705	0.802955	-0.174845
C115	C	0.909755	1.138825	-0.380886
C116	C	1.409755	1.638825	0.119114
C117	C	0.909800	1.068857	-0.380949
C118	C	1.409800	1.568857	0.119051
C119	C	0.869431	0.343213	-0.716102
C120	C	1.369431	0.843213	-0.216102
C121	C	0.949990	0.262677	-0.716141
C122	C	1.449990	0.762677	-0.216141
C123	C	0.950003	0.262656	-0.798687
C124	C	1.450003	0.762656	-0.298687
C125	C	0.909729	0.302914	-0.839944
C126	C	1.409729	0.802914	-0.339944
C127	C	0.869441	0.343192	-0.798656
C128	C	1.369441	0.843192	-0.298656
C129	C	0.990285	0.222374	-0.839982
C130	C	1.490285	0.722374	-0.339982
C131	C	0.990300	0.222352	-0.922533
C132	C	1.490300	0.722352	-0.422533
C133	C	0.950028	0.262613	-0.963792
C134	C	1.450028	0.762613	-0.463792
C135	C	0.909739	0.302893	-0.922498
C136	C	1.409739	0.802893	-0.422498
C137	C	0.869465	0.343151	-0.963755
C138	C	1.369465	0.843151	-0.463755
C139	C	0.829179	0.383435	-0.922463
C140	C	1.329179	0.883435	-0.422463
C141	C	0.829169	0.383453	-0.839914
C142	C	1.329169	0.883453	-0.339914
C143	C	0.950037	0.262594	-1.046340
C144	C	1.450037	0.762594	-0.546340
C145	C	0.869475	0.343130	-1.046309
C146	C	1.369475	0.843130	-0.546309
C147	C	0.909656	0.303011	-0.175454
C148	C	1.409656	0.803011	0.324546
C149	C	0.909763	0.302852	-0.087598
C150	C	1.409763	0.802852	0.412402
H151	H	0.269288	0.230055	-0.472727
H152	H	0.769288	0.730055	0.027273
O153	O	0.993531	1.071397	-0.275972
O154	O	1.493531	1.571397	0.224028
H155	H	1.025560	1.101283	-0.311394
H156	H	1.525560	1.601283	0.188606
H157	H	0.982673	0.542611	-0.289164
H158	H	1.482673	1.042611	0.210836
O159	O	0.993484	0.219153	-1.090880
O160	O	1.493484	0.719153	-0.590880
H161	H	1.021488	0.191165	-1.048323
H162	H	1.521488	0.691165	-0.548323
O163	O	1.033749	0.178909	-0.967073
O164	O	1.533749	0.678909	-0.467073
H165	H	1.083146	0.189701	-0.951241
H166	H	1.583146	0.689701	-0.451241
O167	O	0.678834	0.219502	-0.486064
O168	O	1.178834	0.719502	0.013936
H169	H	0.644969	0.191535	-0.521274
H170	H	1.144969	0.691535	-0.021274
H171	H	0.550657	0.375990	-0.288938
H172	H	1.050657	0.875990	0.211062
H173	H	0.150024	0.230028	-0.472729
H174	H	0.650024	0.730028	0.027271
H175	H	0.669927	0.376012	-0.288915
H176	H	1.169927	0.876012	0.211085
H177	H	0.149819	0.375919	-0.288974
H178	H	0.649819	0.875919	0.211026
H179	H	0.836668	0.943514	-0.472541
H180	H	1.336668	1.443514	0.027459
H181	H	0.269086	0.375942	-0.288962
H182	H	0.769086	0.875942	0.211038
H183	H	0.982777	0.229898	-0.682545
H184	H	1.482777	0.729898	-0.182545
H185	H	0.982724	0.661877	-0.289202
H186	H	1.482724	1.161877	0.210798
O187	O	0.826063	1.071468	-0.485926
O188	O	1.326063	1.571468	0.014074
H189	H	0.832844	1.122701	-0.477451
H190	H	1.332844	1.622701	0.022549
O191	O	0.993485	0.934748	-0.275948
O192	O	1.493485	1.434748	0.224052
H193	H	0.965328	0.904850	-0.235683
H194	H	1.465328	1.404850	0.264317
H195	H	0.836565	0.661945	-0.472463
H196	H	1.336565	1.161945	0.027537
O197	O	0.826033	0.386548	-1.090808
O198	O	1.326033	0.886548	-0.590808
H199	H	0.798016	0.414556	-1.048225
H200	H	1.298016	0.914556	-0.548225
H201	H	0.796384	0.416209	-0.956065
H202	H	1.296384	0.916209	-0.456065
O203	O	0.825858	0.533990	-0.485774
O204	O	1.325858	1.033990	0.014226
H205	H	0.836621	0.546559	-0.547829
H206	H	1.336621	1.046559	-0.047829
O207	O	0.542179	0.219489	-0.486089
O208	O	1.042179	0.719489	0.013911
H209	H	0.576117	0.191543	-0.521310
H210	H	1.076117	0.691543	-0.021310
H211	H	0.796370	0.416250	-0.806287
H212	H	1.296370	0.916250	-0.306287
O213	O	0.825976	0.386658	-0.671574
O214	O	1.325976	0.886658	-0.171574
H215	H	0.832730	0.379909	-0.607241
H216	H	1.332730	0.879909	-0.107241
H217	H	1.023072	0.189597	-0.806385
H218	H	1.523072	0.689597	-0.306385
