data_functionalizedCrystal
_audit_creation_method	'MofGen! by Chris Wilmer'
_symmetry_space_group_name_H-M	'P1'
_symmetry_Int_Tables_number	1
_symmetry_cell_setting	triclinic
loop_
_symmetry_equiv_pos_as_xyz
  x,y,z
_cell_length_a	17.640112
_cell_length_b	18.215405
_cell_length_c	18.215399
_cell_angle_alpha	90.030551
_cell_angle_beta	101.175900
_cell_angle_gamma	78.749589
loop_
_atom_site_label
_atom_site_type_symbol
_atom_site_fract_x
_atom_site_fract_y
_atom_site_fract_z
Zn1	Zn	1.208329	0.065305	-0.189031
Zn2	Zn	1.208231	0.188395	-0.065977
Zn3	Zn	1.076155	0.090234	-0.090817
Zn4	Zn	1.076118	0.213247	-0.213829
O5	O	1.142208	0.139295	-0.139913
O6	O	1.318922	0.060800	-0.151934
O7	O	1.190685	0.175406	0.033707
O8	O	1.093744	-0.016068	-0.103862
O9	O	1.318849	0.151233	-0.061527
O10	O	1.190853	-0.034383	-0.176019
O11	O	1.093649	0.103287	0.015458
O12	O	0.965545	0.127386	-0.127908
O13	O	1.093682	0.193590	-0.313519
O14	O	0.965518	0.217763	-0.218285
O15	O	1.190817	0.084898	-0.295300
O16	O	1.190649	0.294686	-0.085573
O17	O	1.093587	0.312945	-0.194199
C18	C	0.936852	0.177977	-0.178483
C19	C	0.849000	0.194542	-0.195001
C20	C	1.142125	0.330517	-0.139894
C21	C	1.142161	0.412309	-0.139896
C22	C	1.142256	0.139235	-0.331857
C23	C	1.142277	0.139210	-0.413652
C24	C	0.560026	0.013434	-0.014436
C25	C	0.477476	0.029015	-0.029967
C26	C	0.477502	0.123254	-0.123914
C27	C	0.560054	0.107679	-0.108393
C28	C	0.601310	0.052768	-0.053653
C29	C	0.601338	0.147013	-0.147610
C30	C	0.683882	0.131441	-0.132088
C31	C	0.725144	0.076535	-0.077349
C32	C	0.683854	0.037197	-0.038131
C33	C	0.560080	0.201927	-0.202347
C34	C	0.601364	0.241261	-0.241564
C35	C	0.683910	0.225686	-0.226045
C36	C	0.725172	0.170780	-0.171306
C37	C	0.725200	0.265025	-0.265264
C38	C	0.807745	0.249453	-0.249741
C39	C	0.807717	0.155208	-0.155784
C40	C	1.348366	0.100463	-0.101193
C41	C	1.436218	0.083916	-0.084693
C42	C	1.142314	-0.052678	-0.139945
C43	C	1.142358	-0.134485	-0.139959
C44	C	1.192821	0.590949	-0.083399
C45	C	1.192856	0.667801	-0.083410
C46	C	1.091697	0.686870	-0.196462
C47	C	1.091666	0.610019	-0.196453
C48	C	1.142227	0.562060	-0.139918
C49	C	1.142293	0.715764	-0.139938
C50	C	1.142331	0.799090	-0.139950
C51	C	1.142190	0.478728	-0.139906
C52	C	1.192873	0.082566	-0.592357
C53	C	1.192883	0.082543	-0.669214
C54	C	1.091736	0.195729	-0.688175
C55	C	1.091724	0.195749	-0.611320
C56	C	1.142297	0.139168	-0.563412
C57	C	1.142319	0.139125	-0.717124
C58	C	1.142329	0.139100	-0.800456
C59	C	1.142286	0.139191	-0.480075
C60	C	1.142206	0.139293	0.051292
C61	C	1.142338	0.139082	0.133116
H62	H	0.841309	0.110484	-0.111220
C63	C	0.469280	0.219061	-0.219426
C64	C	0.423858	0.298324	-0.208886
C65	C	0.333058	0.315459	-0.225965
C66	C	0.287679	0.253330	-0.253585
C67	C	0.333101	0.174061	-0.264126
C68	C	0.423901	0.156927	-0.247046
H69	H	0.457450	0.344320	-0.188439
H70	H	0.299434	0.374139	-0.218162
H71	H	0.220463	0.266014	-0.266228
H72	H	0.299509	0.128065	-0.284573
H73	H	0.457525	0.098246	-0.254850
H74	H	1.234056	0.691318	-0.037388
C75	C	1.036115	0.257971	-0.740874
C76	C	1.036129	0.257955	-0.825411
C77	C	0.980508	0.320200	-0.878108
C78	C	0.924872	0.382460	-0.846267
C79	C	0.924856	0.382477	-0.761725
C80	C	0.980477	0.320233	-0.709028
H81	H	1.077316	0.211865	-0.848985
H82	H	0.980520	0.320186	-0.940691
H83	H	0.883698	0.428537	-0.885276
H84	H	0.883669	0.428568	-0.738151
H85	H	0.980464	0.320246	-0.646445
C86	C	0.815945	0.059399	-0.060272
C87	C	0.861304	0.069698	0.019011
C88	C	0.952105	0.052561	0.036088
C89	C	0.997545	0.025124	-0.026118
C90	C	0.952185	0.014824	-0.105406
C91	C	0.861385	0.031961	-0.122483
H92	H	0.827667	0.090010	0.065064
H93	H	0.985682	0.060186	0.094782
H94	H	1.064761	0.012438	-0.013477
H95	H	0.985823	-0.005488	-0.151460
H96	H	0.827807	0.024336	-0.181177
H97	H	1.234051	0.036493	-0.553353
C98	C	1.036082	0.258010	-0.579472
C99	C	1.070288	0.309350	-0.520186
C100	C	1.014645	0.371603	-0.488337
C101	C	0.924798	0.382515	-0.515773
C102	C	0.890588	0.331173	-0.575063
C103	C	0.946230	0.268920	-0.606912
H104	H	1.136803	0.301273	-0.499873
H105	H	1.039970	0.409610	-0.444447
H106	H	0.883608	0.428599	-0.492196
H107	H	0.824073	0.339250	-0.595376
H108	H	0.920905	0.230914	-0.650802
C109	C	1.036076	0.739626	-0.258645
C110	C	1.042466	0.727790	-0.341110
C111	C	0.986840	0.780543	-0.403293
C112	C	0.924825	0.845132	-0.383012
C113	C	0.918433	0.856971	-0.300543
C114	C	0.974058	0.804217	-0.238360
H115	H	1.088375	0.679975	-0.356126
H116	H	0.991573	0.771779	-0.464342
H117	H	0.883648	0.884183	-0.429044
H118	H	0.872524	0.904786	-0.285526
H119	H	0.969326	0.812981	-0.177311
H120	H	0.717447	-0.007528	0.006434
C121	C	1.036010	0.578236	-0.258628
C122	C	0.980390	0.630986	-0.320811
C123	C	0.924740	0.599201	-0.382986
C124	C	0.924712	0.514667	-0.382978
C125	C	0.980334	0.461912	-0.320793
C126	C	1.035984	0.493696	-0.258618
H127	H	0.980409	0.693568	-0.320819
H128	H	0.883565	0.638255	-0.429019
H129	H	0.883517	0.491138	-0.429003
H130	H	0.980315	0.399329	-0.320785
H131	H	1.077159	0.454643	-0.212585
C132	C	0.432063	-0.014259	0.013175
C133	C	0.341266	0.002868	-0.003894
C134	C	0.295854	-0.040403	0.039248
C135	C	0.341237	-0.100799	0.099459
C136	C	0.432038	-0.117928	0.116531
C137	C	0.477451	-0.074658	0.073389
H138	H	0.307666	0.047579	-0.048469
H139	H	0.228636	-0.027722	0.026609
H140	H	0.307619	-0.132830	0.131395
H141	H	0.465638	-0.162640	0.161105
H142	H	0.544668	-0.087339	0.086027
H143	H	0.593619	-0.031290	0.030128
H144	H	0.443900	0.167964	-0.168481
H145	H	0.567762	0.285971	-0.286131
H146	H	1.233991	0.551902	-0.037365
H147	H	1.234066	0.036452	-0.692777
H148	H	0.691597	0.309737	-0.309828
C149	C	0.853165	0.292717	-0.292879
C150	C	0.841797	0.378516	-0.288863
C151	C	0.887219	0.421783	-0.331999
C152	C	0.944008	0.379251	-0.379149
C153	C	0.955378	0.293447	-0.383167
C154	C	0.909956	0.250180	-0.340032
H155	H	0.799756	0.410005	-0.253958
H156	H	0.878802	0.485301	-0.329024
H157	H	0.977632	0.411280	-0.411081
H158	H	0.997419	0.261958	-0.418072
H159	H	0.918374	0.186662	-0.343006
