data_functionalizedCrystal
_audit_creation_method	'MofGen! by Chris Wilmer'
_symmetry_space_group_name_H-M	'P1'
_symmetry_Int_Tables_number	1
_symmetry_cell_setting	triclinic
loop_
_symmetry_equiv_pos_as_xyz
  x,y,z
_cell_length_a	10.723022
_cell_length_b	10.723024
_cell_length_c	9.798715
_cell_angle_alpha	89.998022
_cell_angle_beta	89.996609
_cell_angle_gamma	84.467548
loop_
_atom_site_label
_atom_site_type_symbol
_atom_site_fract_x
_atom_site_fract_y
_atom_site_fract_z
O1	O	1.657188	0.175015	-0.113478
O2	O	1.294036	0.191770	-0.113483
O3	O	1.483989	0.001817	-0.113475
O4	O	1.467236	0.364969	-0.113486
O5	O	1.483975	0.001816	0.113507
O6	O	1.294022	0.191770	0.113499
O7	O	1.657174	0.175015	0.113504
Zn8	Zn	1.475596	0.183392	0.149540
Zn9	Zn	1.475614	0.183393	-0.149519
O10	O	1.467221	0.364969	0.113496
C11	C	1.247529	0.190551	0.000008
C12	C	1.108975	0.186904	0.000006
C13	C	0.890796	0.289421	0.000001
C14	C	1.033999	0.293192	0.000002
C15	C	1.482763	-0.044683	0.000014
C16	C	1.479115	-0.183238	0.000009
C17	C	1.585403	-0.258221	0.000009
C18	C	1.581635	-0.401424	0.000004
C19	C	1.703681	0.176234	0.000010
C20	C	1.842235	0.179881	0.000003
C21	C	1.468448	0.411468	0.000004
C22	C	1.472095	0.550023	-0.000000
N23	N	1.475592	0.183391	0.353640
N24	N	1.475628	0.183384	-0.353619
C25	C	1.555348	0.103283	0.421420
C26	C	1.555368	0.103279	0.578582
H27	H	1.067171	0.093113	-0.000028
Br28	Br	1.669193	-0.011029	0.675725
Br29	Br	1.361819	0.297715	0.549248
Br30	Br	0.949631	0.028217	-0.000008
Br31	Br	0.783400	0.441085	-0.000026
H32	H	1.623612	0.034697	0.363100
H33	H	1.679188	-0.216399	0.000018
Br34	Br	1.320423	-0.342600	0.000017
H35	H	1.672625	-0.465857	0.000009
H36	H	1.385329	-0.225059	-0.000001
H37	H	1.075811	0.386980	0.000008
H38	H	1.407320	0.251967	0.411961
