data_functionalizedCrystal
_audit_creation_method	'MofGen! by Chris Wilmer'
_symmetry_space_group_name_H-M	'P1'
_symmetry_Int_Tables_number	1
_symmetry_cell_setting	triclinic
loop_
_symmetry_equiv_pos_as_xyz
  x,y,z
_cell_length_a	19.805407
_cell_length_b	18.101395
_cell_length_c	19.805399
_cell_angle_alpha	89.974882
_cell_angle_beta	89.980427
_cell_angle_gamma	90.031104
loop_
_atom_site_label
_atom_site_type_symbol
_atom_site_fract_x
_atom_site_fract_y
_atom_site_fract_z
Zn1	Zn	1.034714	-0.294847	-0.382731
Zn2	Zn	1.034619	-0.418690	-0.269548
Zn3	Zn	0.921528	-0.294867	-0.269556
Zn4	Zn	0.921482	-0.418651	-0.382695
O5	O	0.978086	-0.356764	-0.326132
O6	O	1.129418	-0.311283	-0.367729
O7	O	1.019597	-0.402290	-0.174832
O8	O	0.936601	-0.191232	-0.284587
O9	O	1.129348	-0.402270	-0.284574
O10	O	1.019758	-0.191217	-0.367737
O11	O	0.936510	-0.311318	-0.174838
O12	O	0.826806	-0.311279	-0.284552
O13	O	0.936523	-0.402203	-0.477416
O14	O	0.826772	-0.402223	-0.367674
O15	O	1.019714	-0.311245	-0.477443
O16	O	1.019553	-0.522318	-0.284538
O17	O	0.936432	-0.522289	-0.367667
C18	C	0.802230	-0.356750	-0.326110
C19	C	0.726998	-0.356761	-0.326117
C20	C	0.691654	-0.404187	-0.369329
C21	C	0.620965	-0.404188	-0.369339
C22	C	0.585622	-0.356767	-0.326132
C23	C	0.620971	-0.309336	-0.282919
C24	C	0.691658	-0.309332	-0.282913
C25	C	0.335898	-0.309353	-0.282941
C26	C	0.265206	-0.309363	-0.282948
C27	C	0.265205	-0.404209	-0.369367
C28	C	0.335892	-0.404205	-0.369361
C29	C	0.371235	-0.356771	-0.326150
C30	C	0.447883	-0.356770	-0.326141
C31	C	0.508975	-0.356772	-0.326137
C32	C	0.977995	-0.549174	-0.326112
C33	C	0.978018	-0.631489	-0.326127
C34	C	0.978167	-0.930579	-0.326163
C35	C	0.925991	-0.899267	-0.378595
C36	C	0.925743	-0.813649	-0.378431
C37	C	0.978093	-0.782197	-0.326146
C38	C	0.958782	-0.813345	-0.254811
C39	C	0.958446	-0.898990	-0.255125
C40	C	1.049768	-0.898924	-0.344438
C41	C	1.049347	-0.813273	-0.346002
C42	C	0.978053	-0.698337	-0.326131
C43	C	0.978206	-1.014439	-0.326173
C44	C	1.154629	-0.356779	-0.326155
C45	C	1.229861	-0.356785	-0.326164
C46	C	0.978124	-0.356717	-0.502675
C47	C	0.978140	-0.356697	-0.577907
C48	C	0.978195	-0.163602	-0.326167
C49	C	0.978242	-0.081288	-0.326182
C50	C	1.021458	-0.309333	-0.613266
C51	C	1.021465	-0.309311	-0.683955
C52	C	0.978157	-0.356659	-0.719283
C53	C	0.934834	-0.404025	-0.683919
C54	C	0.934824	-0.404042	-0.613231
C55	C	0.934872	-0.403956	-0.968992
C56	C	0.934887	-0.403937	-1.039684
C57	C	1.021513	-0.309225	-1.039716
C58	C	1.021503	-0.309242	-0.969028
C59	C	0.978178	-0.356606	-0.933670
C60	C	0.978170	-0.356628	-0.857022
C61	C	0.978168	-0.356641	-0.795930
C62	C	0.978087	-0.356757	-0.150276
C63	C	0.978202	-0.356568	-0.075045
H64	H	0.364665	-0.270735	-0.247751
N65	N	1.068178	-0.258270	-0.575169
H66	H	1.099524	-0.288382	-0.545847
H67	H	1.095574	-0.228276	-0.608344
H68	H	1.056788	-0.270657	-1.068513
N69	N	0.582855	-0.258202	-0.236304
H70	H	0.532711	-0.265408	-0.242856
H71	H	0.595196	-0.269676	-0.187951
N72	N	0.888096	-0.455121	-0.575090
H73	H	0.860661	-0.485112	-0.608195
H74	H	0.915618	-0.489404	-0.545757
H75	H	1.056741	-0.270744	-0.712741
N76	N	0.888172	-0.454999	-1.077797
H77	H	0.898644	-0.507919	-1.065490
H78	H	0.839834	-0.443427	-1.065479
H79	H	0.899569	-0.442573	-0.712688
N80	N	0.729772	-0.455340	-0.415926
H81	H	0.696652	-0.485383	-0.443302
H82	H	0.759128	-0.425239	-0.447295
N83	N	0.729780	-0.258185	-0.236300
H84	H	0.779923	-0.265376	-0.242853
H85	H	0.717452	-0.205311	-0.246921
N86	N	0.888123	-0.455014	-0.930861
H87	H	0.860685	-0.484998	-0.963969
H88	H	0.915625	-0.489305	-0.901516
H89	H	0.937825	-0.792587	-0.431325
N90	N	0.582844	-0.455347	-0.415939
H91	H	0.553488	-0.489621	-0.388373
H92	H	0.553581	-0.425249	-0.447350
H93	H	1.088641	-0.919172	-0.306250
N94	N	0.941825	-0.926489	-0.448888
H95	H	0.982973	-0.959385	-0.447431
H96	H	0.902080	-0.955383	-0.466876
H97	H	0.872670	-0.793225	-0.366326
N98	N	1.103565	-0.784923	-0.299098
H99	H	1.148733	-0.805801	-0.313085
H100	H	1.105163	-0.729214	-0.301469
N101	N	1.068218	-0.258180	-0.930925
H102	H	1.095661	-0.228169	-0.964051
H103	H	1.040681	-0.223913	-0.901597
N104	N	0.374012	-0.455356	-0.415957
H105	H	0.340895	-0.485400	-0.443335
H106	H	0.403368	-0.425253	-0.447326
N107	N	0.856115	-0.927854	-0.362768
H108	H	0.858111	-0.960999	-0.321782
H109	H	0.825042	-0.884847	-0.353366
H110	H	0.236420	-0.442829	-0.404554
H111	H	0.906106	-0.919033	-0.239644
N112	N	0.227084	-0.258214	-0.236344
H113	H	0.239406	-0.205313	-0.246942
H114	H	0.176954	-0.265484	-0.242926
N115	N	1.006596	-0.926439	-0.201614
H116	H	1.027943	-0.882901	-0.177923
H117	H	0.981060	-0.957421	-0.167722
H118	H	0.995590	-0.792973	-0.214680
N119	N	0.890187	-0.785019	-0.233938
H120	H	0.855261	-0.801439	-0.267921
H121	H	0.878269	-0.805375	-0.187964
N122	N	1.073095	-0.927466	-0.412164
H123	H	1.037481	-0.961212	-0.431687
H124	H	1.080802	-0.884480	-0.443772
H125	H	1.063910	-0.792912	-0.398501
