data_functionalizedCrystal
_audit_creation_method	'MofGen! by Chris Wilmer'
_symmetry_space_group_name_H-M	'P1'
_symmetry_Int_Tables_number	1
_symmetry_cell_setting	triclinic
loop_
_symmetry_equiv_pos_as_xyz
  x,y,z
_cell_length_a	14.519709
_cell_length_b	12.996460
_cell_length_c	9.065218
_cell_angle_alpha	90.001592
_cell_angle_beta	95.651985
_cell_angle_gamma	90.000602
loop_
_atom_site_label
_atom_site_type_symbol
_atom_site_fract_x
_atom_site_fract_y
_atom_site_fract_z
O1	O	1.225286	0.085428	-0.193384
O2	O	1.725286	0.585428	0.306616
O3	O	0.956976	0.085459	-0.216159
O4	O	1.456976	0.585459	0.283841
O5	O	1.096677	0.085441	0.009975
O6	O	1.596677	0.585441	0.509975
O7	O	1.085585	0.085447	-0.419518
O8	O	1.585585	0.585447	0.080482
O9	O	1.096659	-0.085693	0.009962
O10	O	1.596659	0.414307	0.509962
O11	O	0.956958	-0.085674	-0.216172
O12	O	1.456958	0.414326	0.283828
O13	O	1.225268	-0.085705	-0.193397
O14	O	1.725268	0.414295	0.306603
Cu15	Cu	1.091112	-0.101316	-0.204786
Cu16	Cu	1.591112	0.398684	0.295214
Cu17	Cu	1.091133	0.101070	-0.204770
Cu18	Cu	1.591133	0.601070	0.295230
O19	O	1.085567	-0.085687	-0.419531
O20	O	1.585567	0.414313	0.080469
C21	C	0.922600	-0.000103	-0.215104
C22	C	1.422600	0.499897	0.284896
C23	C	0.820195	-0.000092	-0.211923
C24	C	1.320195	0.499908	0.288077
C25	C	0.445214	-0.000139	-0.200214
C26	C	0.945214	0.499861	0.299786
C27	C	0.549545	-0.000125	-0.203466
C28	C	1.049545	0.499875	0.296534
C29	C	0.632701	-0.000114	-0.206068
C30	C	1.132701	0.499886	0.293932
C31	C	0.737039	-0.000103	-0.209321
C32	C	1.237039	0.499897	0.290679
N33	N	1.091103	-0.243663	-0.204796
N34	N	1.591103	0.256337	0.295204
C35	C	1.091107	-0.336769	-0.204799
C36	C	1.591107	0.163231	0.295201
C37	C	1.091116	-0.453574	-0.204790
C38	C	1.591116	0.046426	0.295210
C39	C	1.091127	-0.546672	-0.204773
C40	C	1.591127	-0.046672	0.295227
C41	C	1.091137	-0.663485	-0.204765
C42	C	1.591137	-0.163485	0.295235
C43	C	1.259645	-0.000140	-0.194452
C44	C	1.759645	0.499860	0.305548
C45	C	1.362049	-0.000145	-0.197633
C46	C	1.862049	0.499855	0.302367
C47	C	1.095602	-0.000124	0.064935
C48	C	1.595602	0.499876	0.564935
C49	C	1.092415	-0.000119	0.228718
C50	C	1.592415	0.499881	0.728718
N51	N	1.091149	0.243417	-0.204749
N52	N	1.591149	0.743417	0.295251
C53	C	1.086642	-0.000120	-0.474491
C54	C	1.586642	0.499880	0.025509
C55	C	1.089830	-0.000118	-0.638274
C56	C	1.589830	0.499882	-0.138274
