data_functionalizedCrystal
_audit_creation_method	'MofGen! by Chris Wilmer'
_symmetry_space_group_name_H-M	'P1'
_symmetry_Int_Tables_number	1
_symmetry_cell_setting	triclinic
loop_
_symmetry_equiv_pos_as_xyz
  x,y,z
_cell_length_a	14.908742
_cell_length_b	14.908520
_cell_length_c	12.827885
_cell_angle_alpha	93.263516
_cell_angle_beta	93.281513
_cell_angle_gamma	89.837416
loop_
_atom_site_label
_atom_site_type_symbol
_atom_site_fract_x
_atom_site_fract_y
_atom_site_fract_z
Zn1	Zn	1.353922	-0.437199	-0.529381
Zn2	Zn	1.853922	0.062801	-0.029381
Zn3	Zn	1.345135	-0.587576	-0.365266
Zn4	Zn	1.845135	-0.087576	0.134734
Zn5	Zn	1.203559	-0.428571	-0.364145
Zn6	Zn	1.703559	0.071429	0.135855
Zn7	Zn	1.194857	-0.578842	-0.549444
Zn8	Zn	1.694857	-0.078842	-0.049444
O9	O	1.274369	-0.508047	-0.452059
O10	O	1.774369	-0.008047	0.047941
O11	O	1.478576	-0.464413	-0.499683
O12	O	1.978576	0.035587	0.000317
O13	O	1.326319	-0.566528	-0.218886
O14	O	1.826319	-0.066528	0.281114
O15	O	1.230824	-0.303893	-0.377199
O16	O	1.730824	0.196107	0.122801
O17	O	1.472120	-0.574894	-0.379108
O18	O	1.972120	-0.074894	0.120892
O19	O	1.341296	-0.310232	-0.498596
O20	O	1.841296	0.189768	0.001404
O21	O	1.222304	-0.449708	-0.218063
O22	O	1.722304	0.050292	0.281937
O23	O	1.076585	-0.441239	-0.396654
O24	O	1.576585	0.058761	0.103346
O25	O	1.215993	-0.560008	-0.693013
O26	O	1.715993	-0.060008	-0.193013
O27	O	1.070192	-0.551642	-0.532792
O28	O	1.570192	-0.051642	-0.032792
O29	O	1.332857	-0.455944	-0.678273
O30	O	1.832857	0.044056	-0.178273
O31	O	1.317881	-0.712239	-0.398563
O32	O	1.817881	-0.212239	0.101437
O33	O	1.207473	-0.705822	-0.533878
O34	O	1.707473	-0.205822	-0.033878
C35	C	1.040765	-0.494557	-0.466779
C36	C	1.540765	0.005443	0.033221
C37	C	0.940827	-0.488808	-0.473102
C38	C	1.440827	0.011192	0.026898
C39	C	0.803321	-0.423284	-0.544895
C40	C	1.303321	0.076716	-0.044895
C41	C	0.897222	-0.428678	-0.538958
C42	C	1.397222	0.071322	-0.038958
C43	C	0.890525	-0.543548	-0.413181
C44	C	1.390525	-0.043548	0.086819
C45	C	0.796624	-0.538154	-0.419118
C46	C	1.296624	-0.038154	0.080882
C47	C	0.753025	-0.478019	-0.484976
C48	C	1.253025	0.021981	0.015024
C49	C	0.659123	-0.472621	-0.490907
C50	C	1.159123	0.027379	0.009093
C51	C	0.652428	-0.587494	-0.365135
C52	C	1.152428	-0.087494	0.134865
C53	C	0.746329	-0.592889	-0.359199
C54	C	1.246329	-0.092889	0.140801
C55	C	1.260804	-0.741657	-0.468540
C56	C	1.760804	-0.241657	0.031460
C57	C	1.255083	-0.841601	-0.475621
C58	C	1.755083	-0.341601	0.024379
C59	C	1.359420	-1.036034	-0.348122
C60	C	1.859420	-0.536034	0.151878
C61	C	1.354047	-1.129940	-0.354772
C62	C	1.854047	-0.629940	0.145228
C63	C	1.238971	-1.123322	-0.495572
C64	C	1.738971	-0.623322	0.004428
C65	C	1.244344	-1.029415	-0.488923
C66	C	1.744344	-0.529415	0.011077
C67	C	1.304569	-0.985775	-0.415195
C68	C	1.804569	-0.485775	0.084805
C69	C	1.309936	-0.891866	-0.408541
C70	C	1.809936	-0.391866	0.091459
C71	C	1.194865	-0.885250	-0.549346
C72	C	1.694865	-0.385250	-0.049346
C73	C	1.189493	-0.979157	-0.555996
C74	C	1.689493	-0.479157	-0.055996
C75	C	1.508884	-0.521590	-0.437282
C76	C	2.008884	-0.021590	0.062718
C77	C	1.608821	-0.527361	-0.430985
C78	C	2.108821	-0.027361	0.069015
C79	C	1.274435	-0.507964	-0.724619
C80	C	1.774435	-0.007964	-0.224619
C81	C	1.274463	-0.507929	-0.840768
C82	C	1.774463	-0.007929	-0.340768
C83	C	1.288011	-0.273526	-0.435535
C84	C	1.788011	0.226474	0.064465
C85	C	1.293824	-0.173588	-0.428493
C86	C	1.793824	0.326412	0.071507
C87	C	1.332298	-0.456424	-0.885258
C88	C	1.832298	0.043576	-0.385258
C89	C	1.332328	-0.456386	-1.005304
C90	C	1.832328	0.043614	-0.505304
C91	C	1.274358	-0.508067	-0.180551
C92	C	1.774358	-0.008067	0.319449
C93	C	1.274519	-0.507859	-0.064374
C94	C	1.774519	-0.007859	0.435626
H95	H	0.767823	-0.374311	-0.598509
H96	H	1.267823	0.125689	-0.098509
Br97	Br	0.949709	-0.625165	-0.323824
Br98	Br	1.449709	-0.125165	0.176176
Br99	Br	1.414868	-0.382895	-1.069111
Br100	Br	1.914868	0.117105	-0.569111
H101	H	0.781839	-0.641851	-0.305581
H102	H	1.281839	-0.141851	0.194419
Br103	Br	1.191961	-0.581374	-0.925402
Br104	Br	1.691961	-0.081374	-0.425402
Br105	Br	1.157259	-1.182565	-0.595641
Br106	Br	1.657259	-0.682565	-0.095641
H107	H	0.623627	-0.423652	-0.544527
H108	H	1.123627	0.076348	-0.044527
Br109	Br	1.428496	-1.198147	-0.263746
Br110	Br	1.928496	-0.698147	0.236254
Br111	Br	0.584165	-0.661774	-0.283801
Br112	Br	1.084165	-0.161774	0.216199
H113	H	0.938169	-0.384108	-0.587751
H114	H	1.438169	0.115892	-0.087751
Br115	Br	1.391663	-0.832639	-0.308477
Br116	Br	1.891663	-0.332639	0.191523
H117	H	1.225005	-0.551960	-1.026093
H118	H	1.725005	-0.051960	-0.526093
Br119	Br	1.414767	-0.382942	-0.800624
Br120	Br	1.914767	0.117058	-0.300624
Br121	Br	1.120404	-0.817036	-0.640362
Br122	Br	1.620404	-0.317036	-0.140362
Br123	Br	1.441134	-0.976801	-0.248047
Br124	Br	1.941134	-0.476801	0.251953
Br125	Br	1.107768	-1.038392	-0.656056
Br126	Br	1.607768	-0.538392	-0.156056
