data_functionalizedCrystal
_audit_creation_method	'MofGen! by Chris Wilmer'
_symmetry_space_group_name_H-M	'P1'
_symmetry_Int_Tables_number	1
_symmetry_cell_setting	triclinic
loop_
_symmetry_equiv_pos_as_xyz
  x,y,z
_cell_length_a	21.606444
_cell_length_b	12.970454
_cell_length_c	12.970454
_cell_angle_alpha	59.999644
_cell_angle_beta	89.999268
_cell_angle_gamma	60.001029
loop_
_atom_site_label
_atom_site_type_symbol
_atom_site_fract_x
_atom_site_fract_y
_atom_site_fract_z
Zr1	Zr	0.596221	1.128564	-0.135342
O2	O	0.497398	1.343649	-0.299961
O3	O	0.626515	0.913475	-0.084876
O4	O	0.626515	1.128567	-0.299968
O5	O	0.497399	1.128556	0.084798
O6	O	0.728365	1.128575	-0.299974
O7	O	0.497398	1.128557	-0.084869
O8	O	0.728366	0.743814	0.084786
O9	O	0.497398	1.513316	-0.299962
O10	O	0.715445	1.001952	-0.063359
O11	O	0.639436	1.001946	0.063267
O12	O	0.639435	1.255189	-0.189976
O13	O	0.563426	1.255182	-0.063351
Zr14	Zr	0.758660	1.128575	0.135248
Zr15	Zr	0.758659	1.128576	-0.135351
Zr16	Zr	0.596222	1.128563	0.135258
Zr17	Zr	0.596221	1.399164	-0.135343
Zr18	Zr	0.758660	0.857975	0.135250
O19	O	0.728366	1.343664	0.084783
O20	O	0.728365	1.343665	-0.299975
O21	O	0.497399	1.343647	0.084797
O22	O	0.857483	0.913490	0.299868
O23	O	0.857482	0.913492	-0.084890
O24	O	0.626516	0.913473	0.299882
O25	O	0.857482	1.128583	-0.084891
O26	O	0.728366	1.128572	0.299875
O27	O	0.626516	1.128564	0.299881
O28	O	0.857483	1.128582	0.084776
O29	O	0.626515	1.513326	-0.299970
O30	O	0.728366	0.743813	0.299877
O31	O	0.857483	0.743823	0.299869
O32	O	0.857483	0.743824	0.084778
O33	O	0.497399	1.513315	-0.084871
O34	O	0.626516	1.513324	-0.084879
O35	O	0.715446	1.001950	0.189883
O36	O	0.791455	1.001956	0.063258
O37	O	0.715445	1.255193	-0.063360
O38	O	0.639436	1.255187	0.063265
C39	C	0.677441	0.790090	-0.000045
C40	C	0.677440	0.675213	-0.000044
C41	C	0.474255	1.128555	-0.000034
C42	C	0.405295	1.128550	-0.000030
C43	C	0.412572	0.996364	0.066058
C44	C	0.347775	0.996368	0.066060
C45	C	0.275701	1.128560	-0.000036
C46	C	0.268426	1.260756	-0.066127
C47	C	0.333222	1.260750	-0.066120
C48	C	0.007108	1.260781	-0.066155
C49	C	-0.057690	1.260777	-0.066160
C50	C	0.021660	0.996399	0.066024
C51	C	0.086457	0.996393	0.066031
C52	C	0.079176	1.128589	-0.000053
C53	C	0.149437	1.128583	-0.000052
C54	C	0.205441	1.128567	-0.000046
C55	C	0.880626	1.128584	-0.000059
C56	C	0.949586	1.128589	-0.000063
C57	C	0.677440	1.128571	-0.338526
C58	C	0.677439	1.128572	-0.453403
C59	C	0.677441	1.467049	-0.000048
C60	C	0.677441	1.581925	-0.000049
C61	C	0.677441	1.128568	0.338433
C62	C	0.677442	1.128567	0.453309
C63	C	0.880626	0.790105	-0.000057
C64	C	0.949586	0.675233	-0.000061
C65	C	0.677441	0.790089	0.338434
C66	C	0.677442	0.675211	0.453312
C67	C	0.880627	0.790103	0.338422
C68	C	0.949587	0.675231	0.453295
C69	C	0.474254	1.467036	-0.338515
C70	C	0.405294	1.581908	-0.453389
C71	C	0.474255	1.467034	-0.000036
C72	C	0.405295	1.581906	-0.000033
C73	C	0.677440	1.467050	-0.338528
C74	C	0.677439	1.581928	-0.453405
C75	C	0.942294	0.621285	-0.066166
C76	C	1.007082	0.513366	-0.066195
C77	C	1.079162	0.459389	-0.000110
C78	C	1.086453	0.513347	0.065998
C79	C	1.021665	0.621272	0.066018
C80	C	1.021654	0.621289	0.441144
C81	C	1.086455	0.513369	0.549069
C82	C	1.079188	0.459386	0.669144
C83	C	1.007113	0.513339	0.681294
C84	C	0.942314	0.621264	0.573370
C85	C	0.333227	1.635863	-0.441237
C86	C	0.268426	1.743817	-0.549162
C87	C	0.275693	1.797805	-0.669238
C88	C	0.347768	1.743846	-0.681387
C89	C	0.412567	1.635902	-0.573463
C90	C	0.412587	1.635865	0.066062
C91	C	0.347799	1.743814	0.066060
C92	C	0.275719	1.797795	-0.000028
C93	C	0.268428	1.743832	-0.066131
C94	C	0.333216	1.635892	-0.066136
H95	H	0.471255	0.888718	0.119887
H96	H	1.131958	0.371506	0.757013
O97	O	1.156519	0.460870	0.537476
C98	C	1.212162	0.354026	0.658471
H99	H	1.186920	0.371727	0.730032
H100	H	1.232449	0.241119	0.685974
C101	C	1.310640	0.344183	0.568927
C102	C	1.279639	0.365931	0.656818
H103	H	1.352265	0.351520	0.567908
H104	H	1.273153	0.416162	0.487410
H105	H	1.327540	0.250095	0.591857
H106	H	1.262731	0.460024	0.633879
H107	H	1.317125	0.293968	0.738332
H108	H	0.222923	1.885700	-0.757106
H109	H	0.209738	1.368389	-0.119936
H110	H	0.027582	0.888759	0.119837
H111	H	1.001207	0.469370	0.779073
H112	H	0.209732	1.787799	-0.119938
H113	H	1.027613	0.665182	0.119856
H114	H	1.001131	0.469446	-0.120027
O115	O	0.325992	1.583583	-0.130351
C116	C	0.248477	1.654407	-0.188696
H117	H	0.213935	1.698892	-0.136849
H118	H	0.229386	1.748147	-0.291288
C119	C	0.278682	1.490414	-0.247561
C120	C	0.236257	1.545041	-0.183875
H121	H	0.271143	1.422955	-0.244593
H122	H	0.330905	1.442701	-0.208257
H123	H	0.262767	1.568542	-0.333049
H124	H	0.252178	1.466915	-0.098386
H125	H	0.184036	1.592738	-0.223164
H126	H	0.353707	0.888729	0.119877
O127	O	0.872240	0.673960	-0.130462
C128	C	0.832394	0.825197	-0.223240
H129	H	0.857134	0.870974	-0.195450
H130	H	0.837790	0.845794	-0.318046
C131	C	0.717775	0.844517	-0.268190
C132	C	0.748157	0.900743	-0.234052
H133	H	0.665813	0.891118	-0.274865
H134	H	0.744620	0.742625	-0.205687
H135	H	0.722279	0.861685	-0.347192
H136	H	0.743661	0.883558	-0.155045
H137	H	0.721308	1.002634	-0.296542
O138	O	1.156530	0.460694	0.130176
C139	C	1.212141	0.353891	0.115951
H140	H	1.186872	0.306719	0.091595
H141	H	1.232411	0.405526	0.036819
C142	C	1.310675	0.289134	0.270125
C143	C	1.279641	0.231188	0.240220
H144	H	1.352315	0.213447	0.346777
H145	H	1.273210	0.361093	0.279706
H146	H	1.327561	0.332162	0.204172
H147	H	1.262748	0.188177	0.306165
H148	H	1.317106	0.159219	0.230653
H149	H	0.222971	1.885686	-0.000013
O150	O	1.028859	0.673497	0.324605
C151	C	1.106369	0.602647	0.337049
H152	H	1.140923	0.558302	0.433310
H153	H	1.125457	0.508804	0.328351
C154	C	1.076133	0.766390	0.114131
C155	C	1.118573	0.711935	0.232356
H156	H	1.083662	0.833801	0.049549
H157	H	1.023913	0.814121	0.105745
H158	H	1.092045	0.688176	0.106900
H159	H	1.102654	0.790147	0.239591
H160	H	1.170791	0.664220	0.240741
H161	H	0.883636	0.665169	0.583281
H162	H	0.327293	1.368390	-0.119920
H163	H	0.353676	1.787817	-0.779165
O164	O	0.326292	1.583233	-0.324509
C165	C	0.398933	1.476413	-0.231840
H166	H	0.441881	1.429195	-0.273899
H167	H	0.415447	1.528044	-0.198080
C168	C	0.345210	1.411759	-0.067742
C169	C	0.397958	1.353756	-0.119397
H170	H	0.344609	1.336101	0.001621
H171	H	0.296270	1.483729	-0.130174
H172	H	0.358978	1.454784	-0.039620
H173	H	0.384185	1.310749	-0.147533
H174	H	0.446896	1.281776	-0.056967
H175	H	0.145140	0.888749	0.119849
O176	O	0.198460	1.796233	-0.537183
C177	C	0.190161	1.858662	-0.470594
H178	H	0.248492	1.809902	-0.411038
H179	H	0.159186	1.981601	-0.540482
C180	C	0.072498	1.886535	-0.457049
C181	C	0.144141	1.826639	-0.383892
H182	H	0.044108	1.866789	-0.403570
H183	H	0.078087	1.844481	-0.501915
H184	H	0.046695	1.988981	-0.515285
H185	H	0.169946	1.724194	-0.325669
H186	H	0.138556	1.868675	-0.339013
H187	H	0.471273	1.591922	0.119887
O188	O	-0.127666	1.389287	-0.130547
C189	C	-0.135978	1.469704	-0.259571
H190	H	-0.077652	1.432129	-0.270386
H191	H	-0.166941	1.451380	-0.312603
C192	C	-0.253658	1.679211	-0.300977
C193	C	-0.182020	1.633068	-0.314260
H194	H	-0.282062	1.779982	-0.334714
H195	H	-0.248060	1.625031	-0.214052
H196	H	-0.279451	1.663928	-0.345170
H197	H	-0.156225	1.648334	-0.270053
H198	H	-0.187615	1.687254	-0.401178
H199	H	1.131910	0.371508	-0.000136
O200	O	0.482528	1.583750	-0.585451
C201	C	0.490828	1.698944	-0.652019
H202	H	0.432497	1.806914	-0.711551
H203	H	0.521816	1.700365	-0.582117
C204	C	0.608475	1.544400	-0.665624
C205	C	0.536831	1.677009	-0.738751
H206	H	0.636854	1.530867	-0.719121
H207	H	0.602885	1.466789	-0.620772
H208	H	0.634288	1.545600	-0.607377
H209	H	0.511016	1.675800	-0.796985
H210	H	0.542418	1.754619	-0.783616
H211	H	0.001169	1.368423	-0.119988
H212	H	0.353750	1.787733	0.119894
