data_functionalizedCrystal
_audit_creation_method	'MofGen! by Chris Wilmer'
_symmetry_space_group_name_H-M	'P1'
_symmetry_Int_Tables_number	1
_symmetry_cell_setting	triclinic
loop_
_symmetry_equiv_pos_as_xyz
  x,y,z
_cell_length_a	20.919309
_cell_length_b	19.377369
_cell_length_c	19.377372
_cell_angle_alpha	62.058157
_cell_angle_beta	89.208239
_cell_angle_gamma	45.771252
loop_
_atom_site_label
_atom_site_type_symbol
_atom_site_fract_x
_atom_site_fract_y
_atom_site_fract_z
Zr1	Zr	0.533632	0.707127	0.072388
O2	O	0.375632	0.907045	-0.030446
O3	O	0.594937	0.549310	0.082955
O4	O	0.536301	0.753898	-0.056253
O5	O	0.465883	0.650882	0.242411
O6	O	0.648399	0.742901	-0.052769
O7	O	0.434269	0.702457	0.108761
O8	O	0.753290	0.376931	0.196248
O9	O	0.360992	1.016852	-0.006606
O10	O	0.689192	0.590423	0.115382
O11	O	0.629128	0.560141	0.212523
O12	O	0.560090	0.801016	0.048624
O13	O	0.500026	0.770734	0.145766
Zr14	Zr	0.762837	0.607334	0.291101
Zr15	Zr	0.712416	0.689589	0.077945
Zr16	Zr	0.584053	0.624872	0.285544
Zr17	Zr	0.510284	0.882258	0.110411
Zr18	Zr	0.786186	0.432203	0.253078
O19	O	0.701532	0.765151	0.280534
O20	O	0.629840	0.882107	-0.022546
O21	O	0.447324	0.790088	0.272634
O22	O	0.920837	0.407416	0.393935
O23	O	0.849145	0.524373	0.090855
O24	O	0.666629	0.432354	0.386035
O25	O	0.830586	0.663579	0.121078
O26	O	0.760169	0.560563	0.419742
O27	O	0.648070	0.571559	0.416258
O28	O	0.862200	0.612004	0.254728
O29	O	0.503102	1.002912	-0.002189
O30	O	0.793367	0.311549	0.365678
O31	O	0.935477	0.297609	0.370095
O32	O	0.895399	0.362991	0.200664
O33	O	0.401070	0.951470	0.162825
O34	O	0.543180	0.937530	0.167241
O35	O	0.736379	0.513445	0.314864
O36	O	0.796443	0.543727	0.217723
O37	O	0.667341	0.754320	0.150966
O38	O	0.607277	0.724037	0.248107
C39	C	0.677440	0.438168	0.134184
C40	C	0.687352	0.363821	0.118042
C41	C	0.563608	0.039811	0.318781
C42	C	0.573053	-0.030179	0.303688
C43	C	0.635756	0.001443	0.202280
C44	C	0.626321	0.071433	0.217368
C45	C	0.590245	0.090612	0.275618
C46	C	0.652958	0.122233	0.174205
C47	C	0.643518	0.192222	0.189288
C48	C	0.607442	0.211410	0.247534
C49	C	0.580806	0.160600	0.290702
C50	C	0.689026	0.103060	0.115950
C51	C	0.715664	0.153861	0.072787
C52	C	0.706231	0.223843	0.087875
C53	C	0.670155	0.243032	0.146121
C54	C	0.732867	0.274653	0.044708
C55	C	0.723428	0.344642	0.059791
C56	C	0.660715	0.313020	0.161204
C57	C	0.424603	0.679168	0.174794
C58	C	0.348704	0.686614	0.172436
C59	C	0.380433	0.580189	0.206169
C60	C	0.309114	0.587191	0.203952
C61	C	0.206066	0.700622	0.167995
C62	C	0.174337	0.807055	0.134261
C63	C	0.245657	0.800049	0.136484
C64	C	-0.012644	0.727273	0.159543
C65	C	-0.083964	0.734272	0.157320
C66	C	0.050819	0.514407	0.227013
C67	C	0.122132	0.507413	0.229228
C68	C	0.090399	0.613844	0.195499
C69	C	0.133164	0.707784	0.165725
C70	C	0.163302	0.606679	0.197775
C71	C	0.871866	0.635293	0.188695
C72	C	0.947765	0.627847	0.191053
C73	C	0.585166	0.760119	-0.084881
C74	C	0.563761	0.795039	-0.175371
C75	C	0.619029	0.876293	0.229305
C76	C	0.609117	0.950640	0.245447
C77	C	0.830283	0.360263	-0.298754
C78	C	0.810148	0.393105	-0.383793
C79	C	0.675376	0.612948	-0.453473
C80	C	0.695502	0.580124	-0.368438
C81	C	0.772956	0.453780	-0.291084
C82	C	0.638176	0.673641	-0.360768
C83	C	0.658298	0.640820	-0.275741
C84	C	0.735746	0.514482	-0.198384
C85	C	0.793078	0.420959	-0.206057
C86	C	0.560717	0.799985	-0.438124
C87	C	0.503391	0.893502	-0.430454
C88	C	0.523517	0.860681	-0.345426
C89	C	0.600966	0.734343	-0.268068
C90	C	0.466185	0.954204	-0.337753
C91	C	0.486307	0.921383	-0.252726
C92	C	0.621087	0.701522	-0.183041
C93	C	0.711303	0.554342	0.448370
C94	C	0.732708	0.519422	0.538860
C95	C	0.901072	0.416231	0.141134
C96	C	0.986883	0.334437	0.127351
C97	C	0.740509	0.335279	0.400809
C98	C	0.771826	0.226012	0.475158
C99	C	0.964140	0.313342	0.407759
C100	C	1.071356	0.196629	0.484467
C101	C	0.332329	1.001119	-0.044270
C102	C	0.225113	1.117832	-0.120978
C103	C	0.395397	0.898230	0.222355
C104	C	0.309587	0.980024	0.236138
C105	C	0.555960	0.979182	-0.037320
C106	C	0.524643	1.088449	-0.111669
C107	C	0.971194	0.320405	0.067448
C108	C	1.051809	0.243569	0.054480
C109	C	1.148115	0.180761	0.101419
C110	C	1.163801	0.194800	0.161325
C111	C	1.083184	0.271641	0.174288
C112	C	0.842519	0.150321	0.563503
C113	C	0.871942	0.047660	0.633371
C114	C	0.830676	0.020687	0.614892
C115	C	0.759975	0.096389	0.526539
C116	C	0.730547	0.199054	0.456673
C117	C	1.153066	0.157626	0.469783
C118	C	1.253810	0.047974	0.541852
C119	C	1.272843	-0.022678	0.628603
C120	C	1.191123	0.016334	0.643286
C121	C	1.090380	0.125988	0.571219
C122	C	0.143402	1.156844	-0.106292
C123	C	0.042655	1.266517	-0.178356
C124	C	0.023622	1.337173	-0.265106
C125	C	0.105343	1.298157	-0.279791
C126	C	0.206087	1.188490	-0.207726
C127	C	0.325272	0.994067	0.296033
C128	C	0.244649	1.070931	0.308983
C129	C	0.148342	1.133743	0.262041
C130	C	0.132658	1.119699	0.202138
C131	C	0.213278	1.042843	0.189185
C132	C	0.565928	1.115386	-0.093162
C133	C	0.536522	1.218041	-0.163014
C134	C	0.465825	1.293761	-0.251371
C135	C	0.424541	1.266816	-0.269877
C136	C	0.453953	1.164158	-0.200027
H137	H	0.551430	0.176216	0.338136
H138	H	0.054235	1.170852	0.163921
F139	F	0.674144	-0.018972	0.140284
H140	H	0.420326	1.142239	-0.215107
H141	H	1.242223	0.143651	0.199539
H142	H	0.403684	0.942926	0.334268
H143	H	0.534232	0.055427	0.366215
H144	H	0.745117	0.386007	0.024643
F145	F	0.716066	0.067666	0.506885
H146	H	1.023855	0.157730	0.583187
H147	H	0.631339	0.328636	0.208638
F148	F	0.641171	1.034814	0.000868
H149	H	-0.023872	1.298264	-0.166383
F150	F	0.771247	0.254246	-0.017294
F151	F	0.699065	0.028576	0.099895
F152	F	0.163636	1.081662	-0.013972
H153	H	0.219818	0.886707	0.109027
F154	F	0.196571	1.027901	0.125439
F155	F	0.655312	0.279598	0.362649
F156	F	1.132833	0.232806	0.377462
H157	H	0.856833	0.316943	-0.390028
H158	H	0.366977	1.328482	-0.341826
F159	F	0.023488	0.828503	0.127457
F160	F	0.886453	0.179003	0.583189
F161	F	1.340768	0.006474	0.526206
F162	F	0.490103	0.459461	0.244435
H163	H	0.856153	0.318076	-0.143069
H164	H	0.612310	0.715817	-0.516465
F165	F	1.099899	0.286557	0.238051
F166	F	1.380068	-0.139382	0.705295
F167	F	0.539302	0.834914	-0.528618
H168	H	0.854647	-0.062913	0.671790
H169	H	0.257440	1.082348	0.357763
H170	H	0.334958	0.500528	0.231423
H171	H	1.206635	-0.041207	0.713928
F172	F	0.754052	0.133445	0.010792
F173	F	-0.083605	1.453888	-0.341797
F174	F	0.580466	1.246701	-0.143300
F175	F	0.434530	1.403017	-0.325703
F176	F	0.085071	1.373366	-0.372124
F177	F	0.544695	-0.084240	0.349629
F178	F	0.293044	1.146979	-0.223371
H179	H	0.893358	0.257381	-0.235766
F180	F	0.420956	1.027962	-0.512786
H181	H	0.206033	0.415053	0.258489
H182	H	0.599752	0.268406	0.259810
F183	F	0.272974	0.485958	0.236050
H184	H	0.403116	1.057073	-0.400746
F185	F	0.062548	1.215535	0.275837
F186	F	0.703548	0.567049	-0.100708
H187	H	-0.167876	0.826647	0.128035
F188	F	0.084583	0.401144	0.262911
F189	F	-0.046428	0.840548	0.123642
H190	H	0.090430	0.899410	0.104989
H191	H	0.439623	0.997534	-0.246483
F192	F	0.757157	0.479551	-0.107889
H193	H	1.039019	0.232151	0.005700
F194	F	0.868705	0.387243	0.017479
F195	F	0.947191	-0.032895	0.727396
F196	F	1.233906	0.098981	0.087615
