data_functionalizedCrystal
_audit_creation_method	'MofGen! by Chris Wilmer'
_symmetry_space_group_name_H-M	'P1'
_symmetry_Int_Tables_number	1
_symmetry_cell_setting	triclinic
loop_
_symmetry_equiv_pos_as_xyz
  x,y,z
_cell_length_a	15.995350
_cell_length_b	10.654550
_cell_length_c	9.130313
_cell_angle_alpha	90.003780
_cell_angle_beta	90.000982
_cell_angle_gamma	96.011361
loop_
_atom_site_label
_atom_site_type_symbol
_atom_site_fract_x
_atom_site_fract_y
_atom_site_fract_z
O1	O	0.117599	-1.666298	-0.121912
O2	O	0.128803	-1.300673	-0.121888
O3	O	0.001371	-1.493480	-0.121899
O4	O	0.245030	-1.473491	-0.121900
O5	O	0.001375	-1.493478	0.121700
O6	O	0.128807	-1.300671	0.121711
O7	O	0.117602	-1.666295	0.121687
Cu8	Cu	0.123205	-1.483483	0.143942
Cu9	Cu	0.123201	-1.483486	-0.144142
O10	O	0.245034	-1.473488	0.121698
C11	C	0.127982	-1.253885	-0.000085
C12	C	0.125521	-1.114473	-0.000076
C13	C	-0.029827	-1.492652	-0.000102
C14	C	-0.122791	-1.490175	-0.000110
N15	N	0.123207	-1.483490	0.346564
C16	C	-0.460591	-1.481278	-0.000105
C17	C	-0.413954	-1.343964	-0.000642
C18	C	-0.317249	-1.346442	-0.000093
C19	C	-0.293004	-1.485691	-0.000108
C20	C	-0.333687	-1.553417	0.138991
C21	C	-0.430342	-1.549968	0.139108
C22	C	-0.430688	-1.552807	-0.137910
C23	C	-0.333743	-1.552775	-0.139748
C24	C	-0.198292	-1.488192	-0.000106
C25	C	-0.555303	-1.478780	-0.000098
C26	C	0.276232	-1.474316	-0.000101
C27	C	0.369197	-1.476793	-0.000103
C28	C	0.118423	-1.713084	-0.000119
C29	C	0.120884	-1.852495	-0.000137
C30	C	0.200551	-1.034008	-0.000098
C31	C	0.198233	-0.903017	-0.000123
C32	C	0.045849	-0.932971	-0.000111
C33	C	0.048168	-1.063959	-0.000075
C34	C	0.288528	-1.016713	-0.000111
C35	C	0.286211	-0.885722	-0.000137
N36	N	0.123192	-1.483488	-0.346765
C37	C	0.066800	-1.568887	0.423211
C38	C	0.066789	-1.568883	0.576548
C39	C	0.179602	-1.398083	0.576578
C40	C	0.179607	-1.398081	0.423244
C41	C	0.001671	-1.667501	0.423195
C42	C	0.001661	-1.667497	0.576532
H43	H	-0.289138	-1.293204	-0.099805
H44	H	-0.012929	-1.129471	-0.000037
H45	H	-0.062686	-1.646899	0.381577
H46	H	0.312800	-0.839702	0.105032
Cl47	Cl	-0.462791	-1.483483	-0.300687
H48	H	-0.432806	-1.289082	-0.100393
H49	H	-0.289694	-1.292844	0.099796
Cl50	Cl	-0.478818	-1.709113	-0.139375
Cl51	Cl	0.331775	-1.071209	-0.162485
H52	H	-0.017130	-0.891826	-0.000133
H53	H	-0.433864	-1.289324	0.098560
H54	H	-0.448929	-1.500580	0.243098
H55	H	0.322938	-1.045593	0.101840
Cl56	Cl	-0.310962	-1.711366	0.146970
Cl57	Cl	0.337384	-0.820614	-0.157540
Cl58	Cl	-0.291626	-1.476952	-0.298648
H59	H	0.225531	-1.328534	0.360839
H60	H	-0.059156	-1.637779	0.624082
H61	H	-0.462005	-1.650782	0.145409
H62	H	0.225521	-1.328544	0.639026
H63	H	0.016007	-1.763822	0.618142
H64	H	-0.317791	-1.654321	-0.148158
H65	H	0.022063	-1.758418	0.375631
Cl66	Cl	-0.290292	-1.480791	0.298829
