data_functionalizedCrystal
_audit_creation_method	'MofGen! by Chris Wilmer'
_symmetry_space_group_name_H-M	'P1'
_symmetry_Int_Tables_number	1
_symmetry_cell_setting	triclinic
loop_
_symmetry_equiv_pos_as_xyz
  x,y,z
_cell_length_a	10.654545
_cell_length_b	16.109304
_cell_length_c	9.130313
_cell_angle_alpha	89.998292
_cell_angle_beta	89.996934
_cell_angle_gamma	83.972858
loop_
_atom_site_label
_atom_site_type_symbol
_atom_site_fract_x
_atom_site_fract_y
_atom_site_fract_z
O1	O	1.666261	0.116756	-0.121775
O2	O	1.300631	0.127885	-0.121780
O3	O	1.493488	0.001349	-0.121778
O4	O	1.473403	0.243292	-0.121777
O5	O	1.493475	0.001346	0.121821
O6	O	1.300617	0.127882	0.121819
O7	O	1.666247	0.116752	0.121824
Cu8	Cu	1.483431	0.122317	0.144064
Cu9	Cu	1.483447	0.122321	-0.144020
O10	O	1.473390	0.243288	0.121822
C11	C	1.253837	0.127067	0.000019
C12	C	1.114427	0.124624	0.000016
C13	C	1.048930	0.123473	0.132803
C14	C	0.917942	0.121164	0.132803
C15	C	0.917957	0.121162	-0.132782
C16	C	1.048944	0.123465	-0.132780
C17	C	1.492667	-0.029632	0.000018
C18	C	1.490226	-0.121942	0.000008
C19	C	1.484594	-0.334311	-0.132772
C20	C	1.482289	-0.421044	-0.132771
C21	C	1.482281	-0.421046	0.132814
C22	C	1.484577	-0.334313	0.132811
C23	C	1.485740	-0.290948	0.000014
C24	C	1.481138	-0.464415	0.000018
C25	C	1.478639	-0.558455	0.000020
C26	C	1.488237	-0.196901	0.000011
C27	C	1.713041	0.117570	0.000022
C28	C	1.852451	0.120013	0.000015
C29	C	1.474211	0.274270	0.000023
C30	C	1.476652	0.366579	0.000023
N31	N	1.483429	0.122313	0.346687
N32	N	1.483459	0.122318	-0.346642
C33	C	1.568855	0.066307	0.423339
C34	C	1.568867	0.066307	0.576676
C35	C	1.398024	0.178327	0.576694
C36	C	1.398007	0.178322	0.423360
H37	H	1.102273	0.124401	-0.240918
C38	C	1.485859	-0.286611	-0.278853
N39	N	1.486806	-0.250686	-0.388886
C40	C	1.485836	-0.286611	0.278893
N41	N	1.486781	-0.250681	0.388918
H42	H	1.481353	-0.456346	-0.240899
H43	H	1.481336	-0.456364	0.240933
H44	H	0.864625	0.120219	-0.240900
H45	H	1.638410	0.020699	0.360915
H46	H	1.638427	0.020700	0.639083
H47	H	1.328476	0.223930	0.639137
H48	H	1.328437	0.223929	0.360945
H49	H	0.864621	0.120226	0.240931
C50	C	1.120958	0.124738	0.278883
N51	N	1.175207	0.125687	0.388915
