data_functionalizedCrystal
_audit_creation_method	'MofGen! by Chris Wilmer'
_symmetry_space_group_name_H-M	'P1'
_symmetry_Int_Tables_number	1
_symmetry_cell_setting	triclinic
loop_
_symmetry_equiv_pos_as_xyz
  x,y,z
_cell_length_a	12.759395
_cell_length_b	12.759394
_cell_length_c	19.076919
_cell_angle_alpha	92.274121
_cell_angle_beta	92.282801
_cell_angle_gamma	90.015598
loop_
_atom_site_label
_atom_site_type_symbol
_atom_site_fract_x
_atom_site_fract_y
_atom_site_fract_z
Zn1	Zn	1.582345	-0.442133	-0.397929
Zn2	Zn	1.589310	-0.610768	-0.280240
Zn3	Zn	1.413718	-0.435107	-0.280251
Zn4	Zn	1.406637	-0.617771	-0.397899
O5	O	1.498003	-0.526445	-0.339080
O6	O	1.730290	-0.464512	-0.382325
O7	O	1.571896	-0.581596	-0.181752
O8	O	1.436135	-0.289019	-0.295879
O9	O	1.735407	-0.588408	-0.295859
O10	O	1.560025	-0.294181	-0.382336
O11	O	1.442889	-0.452538	-0.181760
O12	O	1.265758	-0.459328	-0.295850
O13	O	1.424067	-0.600343	-0.496392
O14	O	1.260556	-0.593530	-0.382285
O15	O	1.553159	-0.471302	-0.496414
O16	O	1.565030	-0.758717	-0.295830
O17	O	1.430821	-0.763862	-0.382274
C18	C	1.225036	-0.526427	-0.339066
C19	C	1.108259	-0.526446	-0.339077
C20	C	0.883485	-0.397684	-0.429282
C21	C	0.935683	-0.333279	-0.474365
C22	C	1.045405	-0.333260	-0.474353
C23	C	1.102932	-0.397655	-0.429254
C24	C	1.050734	-0.462060	-0.384172
C25	C	0.941009	-0.462070	-0.384187
C26	C	1.056061	-0.590851	-0.293994
C27	C	0.946339	-0.590866	-0.294001
C28	C	1.113588	-0.655246	-0.248895
C29	C	1.061390	-0.719647	-0.203808
C30	C	0.951661	-0.719662	-0.203822
C31	C	0.894141	-0.655271	-0.248919
C32	C	1.497941	-0.799411	-0.339063
C33	C	1.498009	-0.916189	-0.339079
C34	C	1.637858	-0.910782	-0.249132
C35	C	1.707809	-0.962941	-0.204167
C36	C	1.707870	-1.072663	-0.204186
C37	C	1.637973	-1.130231	-0.249177
C38	C	1.568022	-1.078073	-0.294142
C39	C	1.567967	-0.968347	-0.294116
C40	C	1.428179	-1.083479	-0.384091
C41	C	1.428112	-0.973756	-0.384069
C42	C	1.358283	-1.141047	-0.429081
C43	C	1.288325	-1.088888	-0.474044
C44	C	1.288267	-0.979159	-0.474022
C45	C	1.358161	-0.921598	-0.429034
C46	C	1.772035	-0.526463	-0.339094
C47	C	1.888811	-0.526471	-0.339100
C48	C	1.487046	-0.537387	-0.522654
C49	C	1.482377	-0.542050	-0.600883
C50	C	1.498093	-0.252413	-0.339112
C51	C	1.498131	-0.135637	-0.339126
C52	C	1.547391	-0.477059	-0.637648
C53	C	1.542991	-0.481437	-0.711152
C54	C	1.473581	-0.550811	-0.747890
C55	C	1.408560	-0.615804	-0.711120
C56	C	1.412955	-0.611421	-0.637617
C57	C	1.453224	-0.571120	-0.967718
C58	C	1.448836	-0.575501	-1.041226
C59	C	1.583266	-0.441131	-1.041253
C60	C	1.587659	-0.436758	-0.967748
C61	C	1.522634	-0.501748	-0.930985
N62	N	1.469085	-0.555289	-0.823023
N63	N	1.527126	-0.497263	-0.855854
C64	C	1.508977	-0.515469	-0.156219
C65	C	1.513850	-0.510510	-0.077991
H66	H	1.108237	-0.772078	-0.167096
H67	H	1.764835	-1.115130	-0.167576
H68	H	1.644183	-0.380269	-0.937841
O69	O	1.606183	-0.418452	-0.746947
C70	C	1.671491	-0.480800	-0.789459
H71	H	1.633757	-0.561076	-0.800453
H72	H	1.751047	-0.490653	-0.761147
C73	C	1.732679	-0.328559	-0.845786
C74	C	1.686330	-0.427153	-0.859294
H75	H	1.741837	-0.295466	-0.888863
H76	H	1.688683	-0.286553	-0.817143
H77	H	1.798970	-0.336784	-0.822191
H78	H	1.620034	-0.418926	-0.882881
H79	H	1.730315	-0.469156	-0.887943
H80	H	1.637803	-0.821440	-0.249103
H81	H	1.638037	-1.219573	-0.249195
H82	H	0.888832	-0.280852	-0.511085
O83	O	1.358431	-1.247637	-0.429216
C84	C	1.381310	-1.288246	-0.496696
H85	H	1.425310	-1.226691	-0.525802
H86	H	1.305091	-1.309571	-0.527152
C87	C	1.395784	-1.462552	-0.454197
C88	C	1.449834	-1.386953	-0.489944
H89	H	1.438048	-1.523442	-0.450033
H90	H	1.380366	-1.435195	-0.408735
H91	H	1.332270	-1.480311	-0.479582
H92	H	1.513339	-1.369186	-0.464554
H93	H	1.465264	-1.414310	-0.535401
O94	O	1.095952	-0.270605	-0.518170
C95	C	1.021655	-0.213797	-0.557994
H96	H	0.945148	-0.208375	-0.529183
H97	H	1.006816	-0.255586	-0.611402
C98	C	1.157860	-0.109272	-0.603653
C99	C	1.063895	-0.102606	-0.568265
H100	H	1.183916	-0.040686	-0.609992
H101	H	1.207916	-0.147547	-0.576826
H102	H	1.145481	-0.144101	-0.648156
H103	H	1.076277	-0.067790	-0.523760
H104	H	1.013842	-0.064322	-0.595085
O105	O	1.220363	-0.928615	-0.517802
C106	C	1.239103	-0.959522	-0.587965
H107	H	1.279445	-1.039241	-0.589458
H108	H	1.291645	-0.899121	-0.611684
C109	C	1.084552	-0.869274	-0.628716
C110	C	1.134094	-0.967191	-0.630550
H111	H	1.019779	-0.874000	-0.654986
H112	H	1.071928	-0.848448	-0.581446
H113	H	1.128348	-0.818950	-0.648481
H114	H	1.090304	-1.017510	-0.610778
H115	H	1.146708	-0.988026	-0.677818
H116	H	0.794144	-0.397669	-0.429282
O117	O	1.614844	-0.409576	-0.602072
C118	C	1.671300	-0.353171	-0.650287
H119	H	1.625134	-0.352656	-0.702678
H120	H	1.750612	-0.392115	-0.658108
C121	C	1.744896	-0.240275	-0.557271
C122	C	1.688189	-0.239636	-0.621617
H123	H	1.755319	-0.170242	-0.539585
H124	H	1.706864	-0.278278	-0.524787
H125	H	1.810983	-0.272733	-0.563797
H126	H	1.622098	-0.207190	-0.615088
H127	H	1.726210	-0.201624	-0.654099
H128	H	1.400291	-0.624054	-0.937794
O129	O	1.646314	-0.378038	-1.077074
C130	C	1.627574	-0.396796	-1.149827
H131	H	1.545885	-0.431801	-1.159855
H132	H	1.688629	-0.453989	-1.170685
C133	C	1.735308	-0.249750	-1.175260
C134	C	1.634973	-0.292735	-1.187577
H135	H	1.739876	-0.185562	-1.198547
H136	H	1.747938	-0.237113	-1.126245
H137	H	1.786176	-0.297420	-1.192642
H138	H	1.584108	-0.245071	-1.170187
H139	H	1.622335	-0.305361	-1.236590
H140	H	1.231426	-1.135768	-0.510675
O141	O	1.775602	-0.906858	-0.160487
C142	C	1.760571	-0.798830	-0.170120
H143	H	1.678086	-0.785264	-0.193126
H144	H	1.820595	-0.769851	-0.207626
C145	C	1.875803	-0.754957	-0.070647
C146	C	1.774490	-0.738294	-0.098897
H147	H	1.884394	-0.717614	-0.026714
H148	H	1.885933	-0.827737	-0.064158
H149	H	1.925811	-0.730808	-0.101909
H150	H	1.724485	-0.762455	-0.067639
H151	H	1.764352	-0.665516	-0.105379
O152	O	1.220167	-0.655406	-0.248948
C153	C	1.255745	-0.757211	-0.266885
H154	H	1.190690	-0.802550	-0.297524
H155	H	1.278167	-0.799636	-0.217002
C156	C	1.432102	-0.694179	-0.274840
C157	C	1.352203	-0.749862	-0.312477
H158	H	1.491604	-0.689647	-0.302961
H159	H	1.408134	-0.625591	-0.262753
H160	H	1.450774	-0.729540	-0.233273
H161	H	1.333523	-0.714494	-0.354039
H162	H	1.376170	-0.818444	-0.324572
H163	H	0.909168	-0.772114	-0.167113
O164	O	1.381460	-0.643029	-1.076841
C165	C	1.405461	-0.746678	-1.058887
H166	H	1.449027	-0.745688	-1.005519
H167	H	1.456997	-0.784535	-1.100253
C168	C	1.249705	-0.811315	-1.121034
C169	C	1.303205	-0.810099	-1.055484
H170	H	1.186630	-0.850439	-1.118938
H171	H	1.233536	-0.741485	-1.133133
H172	H	1.292662	-0.842860	-1.155499
H173	H	1.260253	-0.778543	-1.021022
H174	H	1.319365	-0.879925	-1.043379
H175	H	1.352041	-0.672287	-0.741038
H176	H	1.360003	-0.664333	-0.607685
H177	H	0.804799	-0.655263	-0.248925
H178	H	1.192273	-0.397645	-0.429255
H179	H	1.358114	-0.832256	-0.429008
