data_functionalizedCrystal
_audit_creation_method	'MofGen! by Chris Wilmer'
_symmetry_space_group_name_H-M	'P1'
_symmetry_Int_Tables_number	1
_symmetry_cell_setting	triclinic
loop_
_symmetry_equiv_pos_as_xyz
  x,y,z
_cell_length_a	29.839131
_cell_length_b	12.594517
_cell_length_c	12.594509
_cell_angle_alpha	90.025818
_cell_angle_beta	89.965034
_cell_angle_gamma	89.963643
loop_
_atom_site_label
_atom_site_type_symbol
_atom_site_fract_x
_atom_site_fract_y
_atom_site_fract_z
Zn1	Zn	-0.178900	-1.627079	-0.601938
Zn2	Zn	-0.254035	-1.626891	-0.423938
Zn3	Zn	-0.178913	-1.449083	-0.423953
Zn4	Zn	-0.253998	-1.448987	-0.601854
O5	O	-0.216462	-1.538010	-0.512921
O6	O	-0.188878	-1.776000	-0.578355
O7	O	-0.244091	-1.603266	-0.274994
O8	O	-0.116044	-1.472814	-0.447604
O9	O	-0.244079	-1.775862	-0.447579
O10	O	-0.116035	-1.603587	-0.578368
O11	O	-0.188899	-1.472632	-0.275005
O12	O	-0.188863	-1.300125	-0.447523
O13	O	-0.244015	-1.472649	-0.750811
O14	O	-0.244027	-1.300054	-0.578226
O15	O	-0.188841	-1.603493	-0.750872
O16	O	-0.316897	-1.603173	-0.447498
O17	O	-0.316870	-1.472467	-0.578212
C18	C	-0.216443	-1.261469	-0.512868
C19	C	-0.216445	-1.143164	-0.512870
C20	C	-0.333184	-1.537818	-0.512868
C21	C	-0.383119	-1.537833	-0.512881
C22	C	-0.186398	-1.073918	-0.441911
C23	C	-0.227375	-1.003064	-0.415714
C24	C	-0.175481	-1.003219	-0.539069
C25	C	-0.257444	-1.073868	-0.486623
C26	C	-0.205522	-1.074029	-0.610023
C27	C	-0.246527	-1.003206	-0.583863
C28	C	-0.692764	-1.606192	-0.444957
C29	C	-0.880437	-1.606324	-0.444999
O30	O	-0.904703	-1.664293	-0.387207
N31	N	-0.903904	-1.538231	-0.513001
C32	C	-0.880449	-1.470105	-0.581003
O33	O	-0.904716	-1.412199	-0.638852
C34	C	-0.692777	-1.469980	-0.580966
C35	C	-0.669313	-1.538070	-0.512952
C36	C	-0.669299	-1.674278	-0.376949
C37	C	-0.622384	-1.674240	-0.376935
C38	C	-0.598933	-1.606117	-0.444930
C39	C	-0.622397	-1.538032	-0.512938
C40	C	-0.669324	-1.401860	-0.648972
C41	C	-0.622403	-1.401837	-0.648959
C42	C	-0.598938	-1.469927	-0.580945
C43	C	-0.552031	-1.469872	-0.580918
N44	N	-0.528564	-1.537965	-0.512916
C45	C	-0.552015	-1.606087	-0.444922
C46	C	-0.978980	-1.470174	-0.581016
C47	C	-1.025898	-1.470204	-0.581024
C48	C	-1.025882	-1.606424	-0.445021
C49	C	-0.978963	-1.606388	-0.445008
C50	C	-0.955513	-1.538267	-0.513013
C51	C	-0.453489	-1.606003	-0.444897
C52	C	-0.406570	-1.605956	-0.444887
C53	C	-0.406590	-1.469740	-0.580893
C54	C	-0.453505	-1.469782	-0.580900
C55	C	-0.476954	-1.537922	-0.512899
O56	O	-0.527736	-1.411941	-0.638688
O57	O	-0.527741	-1.664002	-0.387098
C58	C	-0.739679	-1.606230	-0.444971
C59	C	-0.763144	-1.538145	-0.512979
C60	C	-0.739693	-1.470022	-0.580973
C61	C	-0.810061	-1.538175	-0.512987
C62	C	-0.833512	-1.606297	-0.444993
C63	C	-0.810046	-1.674390	-0.376990
C64	C	-0.763130	-1.674353	-0.376977
C65	C	-0.763160	-1.401929	-0.648976
C66	C	-0.810075	-1.401972	-0.648983
C67	C	-0.833526	-1.470094	-0.580989
C68	C	-0.099283	-1.538232	-0.512997
C69	C	-0.049349	-1.538327	-0.513029
C70	C	-0.216422	-1.538081	-0.790542
C71	C	-0.216405	-1.538112	-0.908847
C72	C	-0.216472	-0.815631	-0.512955
C73	C	-0.216453	-0.933936	-0.512919
C74	C	-0.246397	-1.466968	-0.978067
C75	C	-0.257378	-1.564077	-1.048862
C76	C	-0.205398	-1.441079	-1.048851
C77	C	-0.227407	-1.635272	-0.978084
C78	C	-0.175409	-1.512208	-0.978067
C79	C	-0.186373	-1.609384	-1.048830
C80	C	-0.216468	-1.538000	-0.236380
C81	C	-0.216359	-1.538176	-0.118075
H82	H	-0.161016	-1.104966	-0.381836
H83	H	-0.271970	-0.972354	-0.643892
O84	O	-0.156092	-1.681181	-1.085845
C85	C	-0.121833	-1.761324	-1.239565
C86	C	-0.156133	-1.679961	-1.197790
H87	H	-0.121862	-1.760381	-1.330076
H88	H	-0.086996	-1.739912	-1.209261
H89	H	-0.131271	-1.843977	-1.210271
H90	H	-0.146737	-1.597280	-1.227067
H91	H	-0.190961	-1.701464	-1.228086
H92	H	-0.472611	-1.414341	-0.636287
O93	O	-0.194401	-1.111201	-0.707953
C94	C	-0.138640	-1.117393	-0.846294
C95	C	-0.151179	-1.075242	-0.735371
H96	H	-0.103698	-1.088318	-0.868506
H97	H	-0.139037	-1.207902	-0.845537
H98	H	-0.163920	-1.087101	-0.906995
H99	H	-0.125911	-1.105455	-0.674608
H100	H	-0.150796	-0.984733	-0.736216
H101	H	-0.236620	-0.971896	-0.333575
H102	H	-0.959890	-1.414699	-0.636395
O103	O	-0.134116	-0.966319	-0.565364
C104	C	-0.055698	-0.960351	-0.520181
C105	C	-0.102517	-1.002225	-0.490307
H106	H	-0.030139	-0.989345	-0.459502
H107	H	-0.046100	-0.990788	-0.602373
H108	H	-0.056201	-0.869843	-0.520751
H109	H	-0.102050	-1.092730	-0.489676
H110	H	-0.112097	-0.971707	-0.408134
O111	O	-0.194335	-1.343206	-1.086116
C112	C	-0.181479	-1.233887	-1.240110
C113	C	-0.194017	-1.344772	-1.198056
H114	H	-0.181208	-1.235122	-1.330617
H115	H	-0.207108	-1.173271	-1.211117
H116	H	-0.146802	-1.211193	-1.209715
H117	H	-0.228683	-1.367566	-1.228433
H118	H	-0.168359	-1.405323	-1.227039
H119	H	-0.387466	-1.661403	-0.389497
H120	H	-0.140769	-1.490234	-0.946947
H121	H	-0.472576	-1.661491	-0.389527
O122	O	-0.276638	-1.395130	-0.940940
C123	C	-0.288665	-1.236794	-0.837267
C124	C	-0.254369	-1.318052	-0.879265
H125	H	-0.270675	-1.174469	-0.787376
H126	H	-0.306087	-1.196526	-0.907013
H127	H	-0.314632	-1.279282	-0.786260
H128	H	-0.228375	-1.275645	-0.930255
H129	H	-0.236981	-1.358317	-0.809471
H130	H	-0.292100	-1.104773	-0.464393
H131	H	-0.603282	-1.729687	-0.321556
O132	O	-0.692006	-1.740489	-0.310791
C133	C	-0.687022	-1.875626	-0.175926
C134	C	-0.661256	-1.800681	-0.250792
H135	H	-0.662173	-1.924327	-0.127414
H136	H	-0.709008	-1.826856	-0.120149
H137	H	-0.708966	-1.931233	-0.224855
H138	H	-0.639288	-1.745059	-0.201950
H139	H	-0.639299	-1.849517	-0.306573
O140	O	-0.692088	-1.335835	-0.715202
C141	C	-0.706369	-1.284057	-0.896218
C142	C	-0.680571	-1.358916	-0.821327
H143	H	-0.697059	-1.302677	-0.982034
H144	H	-0.743938	-1.295769	-0.884657
H145	H	-0.697185	-1.198243	-0.877391
H146	H	-0.689717	-1.444759	-0.840107
H147	H	-0.643008	-1.347112	-0.832901
O148	O	-0.599603	-1.335813	-0.715133
C149	C	-0.546574	-1.321377	-0.858769
C150	C	-0.572374	-1.396269	-0.783915
H151	H	-0.524547	-1.370224	-0.914383
H152	H	-0.571386	-1.272740	-0.907456
H153	H	-0.524666	-1.265708	-0.809822
H154	H	-0.594283	-1.452002	-0.832780
H155	H	-0.547538	-1.444831	-0.735224
O156	O	-0.298740	-1.590084	-1.085920
C157	C	-0.377143	-1.544524	-1.091856
C158	C	-0.330323	-1.514946	-1.049844
H159	H	-0.402692	-1.483804	-1.062688
H160	H	-0.376668	-1.545011	-1.182368
H161	H	-0.386735	-1.626713	-1.061554
H162	H	-0.320703	-1.432752	-1.080067
H163	H	-0.330824	-1.514532	-0.959334
H164	H	-0.744029	-1.729798	-0.321593
O165	O	-0.956241	-1.672634	-0.378909
C166	C	-0.961190	-1.807695	-0.243962
C167	C	-0.986975	-1.732740	-0.318785
H168	H	-0.986028	-1.856294	-0.195316
H169	H	-0.939203	-1.863387	-0.292825
H170	H	-0.939246	-1.758831	-0.188299
H171	H	-1.008943	-1.781518	-0.374463
H172	H	-1.008935	-1.677045	-0.269856
O173	O	-1.048619	-1.404019	-0.647185
C174	C	-1.043670	-1.268866	-0.782039
C175	C	-1.017885	-1.343779	-0.707176
H176	H	-1.018833	-1.220126	-0.830545
H177	H	-1.065588	-1.317662	-0.837822
H178	H	-1.065684	-1.213293	-0.733109
H179	H	-0.995847	-1.399366	-0.756020
H180	H	-0.995996	-1.294917	-0.651389
H181	H	-1.044984	-1.661893	-0.389657
O182	O	-0.383735	-1.403670	-0.646907
C183	C	-0.311457	-1.343229	-0.707115
C184	C	-0.337284	-1.418116	-0.632310
H185	H	-0.273897	-1.354866	-0.695323
H186	H	-0.320613	-1.361888	-0.792984
H187	H	-0.320744	-1.257428	-0.688362
H188	H	-0.328011	-1.503943	-0.650967
H189	H	-0.328126	-1.399366	-0.546463
H190	H	-0.829147	-1.729855	-0.321624
O191	O	-0.740333	-1.335696	-0.714876
C192	C	-0.687445	-1.191882	-0.729028
C193	C	-0.713257	-1.266853	-0.654277
H194	H	-0.665555	-1.136189	-0.680062
H195	H	-0.665411	-1.240631	-0.784716
H196	H	-0.712288	-1.143276	-0.777652
H197	H	-0.688446	-1.315476	-0.605584
H198	H	-0.735298	-1.218043	-0.598658
O199	O	-0.832796	-1.335788	-0.715157
C200	C	-0.827847	-1.200645	-0.850021
C201	C	-0.802062	-1.275547	-0.775146
H202	H	-0.803010	-1.151905	-0.898526
H203	H	-0.849761	-1.249451	-0.905805
H204	H	-0.849865	-1.145073	-0.801101
H205	H	-0.780020	-1.331134	-0.823981
H206	H	-0.780177	-1.226676	-0.719360
O207	O	-0.238554	-1.733154	-0.940986
C208	C	-0.251058	-1.842948	-0.787168
C209	C	-0.238437	-1.732046	-0.829040
H210	H	-0.250958	-1.842095	-0.696655
H211	H	-0.285889	-1.865219	-0.816884
H212	H	-0.225638	-1.903659	-0.816980
H213	H	-0.263827	-1.671261	-0.799245
H214	H	-0.203595	-1.709865	-0.799333
