data_functionalizedCrystal
_audit_creation_method	'MofGen! by Chris Wilmer'
_symmetry_space_group_name_H-M	'P1'
_symmetry_Int_Tables_number	1
_symmetry_cell_setting	triclinic
loop_
_symmetry_equiv_pos_as_xyz
  x,y,z
_cell_length_a	13.897449
_cell_length_b	13.897448
_cell_length_c	17.077396
_cell_angle_alpha	89.972632
_cell_angle_beta	89.978898
_cell_angle_gamma	90.018519
loop_
_atom_site_label
_atom_site_type_symbol
_atom_site_fract_x
_atom_site_fract_y
_atom_site_fract_z
Zn1	Zn	1.474681	-0.383994	-0.443882
Zn2	Zn	1.474581	-0.545306	-0.312619
Zn3	Zn	1.313376	-0.384029	-0.312627
Zn4	Zn	1.313352	-0.545251	-0.443839
O5	O	1.393998	-0.464645	-0.378242
O6	O	1.609649	-0.405400	-0.426485
O7	O	1.453166	-0.523951	-0.202773
O8	O	1.334826	-0.249043	-0.330059
O9	O	1.609576	-0.523916	-0.330046
O10	O	1.453335	-0.249017	-0.426492
O11	O	1.334729	-0.405461	-0.202779
O12	O	1.178392	-0.405407	-0.330017
O13	O	1.334784	-0.523821	-0.553692
O14	O	1.178373	-0.523856	-0.426418
O15	O	1.453311	-0.405347	-0.553724
O16	O	1.453142	-0.680280	-0.330004
O17	O	1.334687	-0.680240	-0.426411
C18	C	1.143383	-0.464630	-0.378214
C19	C	1.036169	-0.464647	-0.378221
C20	C	0.949100	-0.464650	-0.378234
C21	C	0.839867	-0.464657	-0.378258
C22	C	1.393927	-0.715259	-0.378219
C23	C	1.393985	-0.822473	-0.378235
C24	C	1.394087	-1.018768	-0.378285
C25	C	1.394028	-0.909536	-0.378260
C26	C	1.645590	-0.464660	-0.378270
C27	C	1.752804	-0.464667	-0.378281
C28	C	1.394056	-0.464574	-0.582986
C29	C	1.394081	-0.464544	-0.670236
C30	C	1.394094	-0.213052	-0.378282
C31	C	1.394136	-0.105838	-0.378299
C32	C	1.455800	-0.402849	-0.711244
C33	C	1.455812	-0.402816	-0.793224
C34	C	1.394108	-0.464485	-0.834195
C35	C	1.332382	-0.526183	-0.793182
C36	C	1.332366	-0.526209	-0.711203
C37	C	1.332420	-0.526125	-0.964052
C38	C	1.332437	-0.526100	-1.046036
C39	C	1.455867	-0.402732	-1.046074
C40	C	1.455851	-0.402758	-0.964095
C41	C	1.394125	-0.464458	-0.923086
C42	C	1.393995	-0.464646	-0.174294
C43	C	1.394157	-0.464405	-0.087044
H44	H	1.506073	-0.352580	-0.826610
N45	N	1.269402	-0.589071	-1.087901
N46	N	1.269429	-0.589034	-1.161096
H47	H	1.224909	-0.633507	-1.190664
N48	N	1.269357	-0.589147	-0.922174
N49	N	1.214268	-0.644205	-0.958762
H50	H	1.169732	-0.688716	-0.929186
N51	N	1.269336	-0.589153	-0.835038
N52	N	1.207900	-0.555180	-0.880777
H53	H	1.163372	-0.599652	-0.910340
N54	N	1.269308	-0.589229	-0.669323
N55	N	1.214217	-0.644284	-0.705911
H56	H	1.169676	-0.688791	-0.676335
H57	H	1.506101	-0.352548	-0.930738
H58	H	1.506050	-0.352634	-0.677891
N59	N	1.518915	-0.339714	-1.087970
N60	N	1.518921	-0.339694	-1.161165
H61	H	1.563449	-0.295193	-1.190758
