data_functionalizedCrystal
_audit_creation_method	'MofGen! by Chris Wilmer'
_symmetry_space_group_name_H-M	'P1'
_symmetry_Int_Tables_number	1
_symmetry_cell_setting	triclinic
loop_
_symmetry_equiv_pos_as_xyz
  x,y,z
_cell_length_a	27.732064
_cell_length_b	15.944551
_cell_length_c	14.421503
_cell_angle_alpha	90.011571
_cell_angle_beta	89.994262
_cell_angle_gamma	96.925919
loop_
_atom_site_label
_atom_site_type_symbol
_atom_site_fract_x
_atom_site_fract_y
_atom_site_fract_z
O1	O	0.062336	-1.113702	0.077006
O2	O	0.312336	-0.863702	0.327006
O3	O	0.562336	-0.613702	0.577006
O4	O	0.812336	-0.363702	0.827006
O5	O	0.070022	-0.869053	0.077028
O6	O	0.320022	-0.619053	0.327028
O7	O	0.570022	-0.369053	0.577028
O8	O	0.820022	-0.119053	0.827028
O9	O	-0.004184	-0.998968	0.077020
O10	O	0.245816	-0.748968	0.327020
O11	O	0.495816	-0.498968	0.577020
O12	O	0.745816	-0.248968	0.827020
O13	O	0.136543	-0.983786	0.077014
O14	O	0.386543	-0.733786	0.327014
O15	O	0.636543	-0.483786	0.577014
O16	O	0.886543	-0.233786	0.827014
O17	O	-0.004179	-0.998984	-0.077203
O18	O	0.245821	-0.748984	0.172797
O19	O	0.495821	-0.498984	0.422797
O20	O	0.745821	-0.248984	0.672797
O21	O	0.070027	-0.869068	-0.077195
O22	O	0.320027	-0.619068	0.172805
O23	O	0.570027	-0.369068	0.422805
O24	O	0.820027	-0.119068	0.672805
O25	O	0.062341	-1.113718	-0.077217
O26	O	0.312341	-0.863718	0.172783
O27	O	0.562341	-0.613718	0.422783
O28	O	0.812341	-0.363718	0.672783
Cu29	Cu	0.066185	-0.991394	-0.091288
Cu30	Cu	0.316185	-0.741394	0.158712
Cu31	Cu	0.566185	-0.491394	0.408712
Cu32	Cu	0.816185	-0.241394	0.658712
Cu33	Cu	0.066179	-0.991376	0.091099
Cu34	Cu	0.316179	-0.741376	0.341099
Cu35	Cu	0.566179	-0.491376	0.591099
Cu36	Cu	0.816179	-0.241376	0.841099
O37	O	0.136547	-0.983802	-0.077209
O38	O	0.386547	-0.733802	0.172791
O39	O	0.636547	-0.483802	0.422791
O40	O	0.886547	-0.233802	0.672791
C41	C	0.069706	-0.837771	-0.000080
C42	C	0.319706	-0.587771	0.249920
C43	C	0.569706	-0.337771	0.499920
C44	C	0.819706	-0.087771	0.749920
C45	C	0.068749	-0.744537	-0.000072
C46	C	0.318749	-0.494537	0.249928
C47	C	0.568749	-0.244537	0.499928
C48	C	0.818749	0.005463	0.749928
C49	C	0.062658	-1.145000	-0.000106
C50	C	0.312658	-0.895000	0.249894
C51	C	0.562658	-0.645000	0.499894
C52	C	0.812658	-0.395000	0.749894
C53	C	0.063614	-1.238233	-0.000109
C54	C	0.313614	-0.988233	0.249891
C55	C	0.563614	-0.738233	0.499891
C56	C	0.813614	-0.488233	0.749891
C57	C	-0.022190	-0.998655	-0.000088
C58	C	0.227810	-0.748655	0.249912
C59	C	0.477810	-0.498655	0.499912
C60	C	0.727810	-0.248655	0.749912
C61	C	-0.075848	-0.997689	-0.000080
C62	C	0.174152	-0.747689	0.249920
C63	C	0.424152	-0.497689	0.499920
C64	C	0.674152	-0.247689	0.749920
C65	C	-0.453282	-0.914339	-0.000069
C66	C	-0.203282	-0.664339	0.249931
C67	C	0.046718	-0.414339	0.499931
C68	C	0.296718	-0.164339	0.749931
C69	C	-0.251606	-0.917895	-0.000068
C70	C	-0.001606	-0.667895	0.249932
C71	C	0.248394	-0.417895	0.499932
C72	C	0.498394	-0.167895	0.749932
O73	O	-0.220634	-0.853217	-0.000025
O74	O	0.029366	-0.603217	0.249975
O75	O	0.279366	-0.353217	0.499975
O76	O	0.529366	-0.103217	0.749975
N77	N	-0.232145	-0.994932	-0.000075
N78	N	0.017855	-0.744932	0.249925
N79	N	0.267855	-0.494932	0.499925
N80	N	0.517855	-0.244932	0.749925
C81	C	-0.263107	-1.071086	-0.000075
C82	C	-0.013107	-0.821086	0.249925
C83	C	0.236893	-0.571086	0.499925
C84	C	0.486893	-0.321086	0.749925
O85	O	-0.241926	-1.136693	-0.000072
O86	O	0.008074	-0.886693	0.249928
O87	O	0.258074	-0.636693	0.499928
O88	O	0.508074	-0.386693	0.749928
C89	C	-0.464781	-1.067530	-0.000070
C90	C	-0.214781	-0.817530	0.249930
C91	C	0.035219	-0.567530	0.499930
C92	C	0.285219	-0.317530	0.749930
C93	C	-0.484239	-0.990487	-0.000072
C94	C	-0.234239	-0.740487	0.249928
C95	C	0.015761	-0.490487	0.499928
C96	C	0.265761	-0.240487	0.749928
C97	C	-0.472741	-0.837303	-0.000070
C98	C	-0.222741	-0.587303	0.249930
C99	C	0.027259	-0.337303	0.499930
C100	C	0.277259	-0.087303	0.749930
C101	C	-0.523157	-0.836414	-0.000075
C102	C	-0.273157	-0.586414	0.249925
C103	C	-0.023157	-0.336414	0.499925
C104	C	0.226843	-0.086414	0.749925
C105	C	-0.554114	-0.912563	-0.000079
C106	C	-0.304114	-0.662563	0.249921
C107	C	-0.054114	-0.412563	0.499921
C108	C	0.195886	-0.162563	0.749921
C109	C	-0.534655	-0.989599	-0.000078
C110	C	-0.284655	-0.739599	0.249922
C111	C	-0.034655	-0.489599	0.499922
C112	C	0.215345	-0.239599	0.749922
C113	C	-0.495742	-1.143683	-0.000064
C114	C	-0.245742	-0.893683	0.249936
C115	C	0.004258	-0.643683	0.499936
C116	C	0.254258	-0.393683	0.749936
C117	C	-0.546163	-1.142787	-0.000060
C118	C	-0.296163	-0.892787	0.249940
C119	C	-0.046163	-0.642787	0.499940
C120	C	0.203837	-0.392787	0.749940
C121	C	-0.565621	-1.065744	-0.000063
C122	C	-0.315621	-0.815744	0.249937
C123	C	-0.065621	-0.565744	0.499937
C124	C	0.184379	-0.315744	0.749937
C125	C	-0.616029	-1.064859	-0.000087
C126	C	-0.366029	-0.814859	0.249913
C127	C	-0.116029	-0.564859	0.499913
C128	C	0.133971	-0.314859	0.749913
N129	N	-0.635490	-0.987822	-0.000080
N130	N	-0.385490	-0.737822	0.249920
N131	N	-0.135490	-0.487822	0.499920
N132	N	0.114510	-0.237822	0.749920
C133	C	-0.604532	-0.911673	-0.000076
C134	C	-0.354532	-0.661673	0.249924
C135	C	-0.104532	-0.411673	0.499924
C136	C	0.145468	-0.161673	0.749924
C137	C	-0.157224	-1.072948	-0.000080
C138	C	0.092776	-0.822948	0.249920
C139	C	0.342776	-0.572948	0.499920
C140	C	0.592776	-0.322948	0.749920
C141	C	-0.106806	-1.073837	-0.000083
C142	C	0.143194	-0.823837	0.249917
C143	C	0.393194	-0.573837	0.499917
C144	C	0.643194	-0.323837	0.749917
C145	C	-0.095309	-0.920645	-0.000074
C146	C	0.154691	-0.670645	0.249926
C147	C	0.404691	-0.420645	0.499926
C148	C	0.654691	-0.170645	0.749926
C149	C	-0.145728	-0.919757	-0.000077
C150	C	0.104272	-0.669757	0.249923
C151	C	0.354272	-0.419757	0.499923
C152	C	0.604272	-0.169757	0.749923
C153	C	-0.176685	-0.995910	-0.000074
C154	C	0.073315	-0.745910	0.249926
C155	C	0.323315	-0.495910	0.499926
C156	C	0.573315	-0.245910	0.749926
C157	C	-0.710410	-0.909814	-0.000088
C158	C	-0.460410	-0.659814	0.249912
C159	C	-0.210410	-0.409814	0.499912
C160	C	0.039590	-0.159814	0.749912
C161	C	-0.760831	-0.908933	-0.000097
C162	C	-0.510831	-0.658933	0.249903
C163	C	-0.260831	-0.408933	0.499903
C164	C	-0.010831	-0.158933	0.749903
C165	C	-0.772323	-1.062124	-0.000102
C166	C	-0.522323	-0.812124	0.249898
C167	C	-0.272323	-0.562124	0.499898
C168	C	-0.022323	-0.312124	0.749898
C169	C	-0.721907	-1.063006	-0.000097
C170	C	-0.471907	-0.813006	0.249903
C171	C	-0.221907	-0.563006	0.499903
C172	C	0.028093	-0.313006	0.749903
C173	C	-0.690951	-0.986844	-0.000087
C174	C	-0.440951	-0.736844	0.249913
C175	C	-0.190951	-0.486844	0.499913
C176	C	0.059049	-0.236844	0.749913
O177	O	-0.647030	-1.129502	-0.000119
O178	O	-0.397030	-0.879502	0.249881
O179	O	-0.147030	-0.629502	0.499881
O180	O	0.102970	-0.379502	0.749881
O181	O	-0.625722	-0.846076	-0.000059
O182	O	-0.375722	-0.596076	0.249941
O183	O	-0.125722	-0.346076	0.499941
O184	O	0.124278	-0.096076	0.749941
C185	C	-0.402866	-0.915227	-0.000063
C186	C	-0.152866	-0.665227	0.249937
C187	C	0.097134	-0.415227	0.499937
C188	C	0.347134	-0.165227	0.749937
C189	C	-0.383408	-0.992263	-0.000062
C190	C	-0.133408	-0.742263	0.249938
C191	C	0.116592	-0.492263	0.499938
C192	C	0.366592	-0.242263	0.749938
C193	C	-0.414365	-1.068412	-0.000066
C194	C	-0.164365	-0.818412	0.249934
C195	C	0.085635	-0.568412	0.499934
C196	C	0.335635	-0.318412	0.749934
C197	C	-0.332989	-0.993153	-0.000065
C198	C	-0.082989	-0.743153	0.249935
C199	C	0.167011	-0.493153	0.499935
C200	C	0.417011	-0.243153	0.749935
C201	C	-0.302032	-0.917004	-0.000061
C202	C	-0.052032	-0.667004	0.249939
C203	C	0.197968	-0.417004	0.499939
C204	C	0.447968	-0.167004	0.749939
C205	C	-0.321493	-0.839967	-0.000054
C206	C	-0.071493	-0.589967	0.249946
C207	C	0.178507	-0.339967	0.499946
C208	C	0.428507	-0.089967	0.749946
C209	C	-0.371909	-0.839079	-0.000060
C210	C	-0.121909	-0.589079	0.249940
C211	C	0.128091	-0.339079	0.499940
C212	C	0.378091	-0.089079	0.749940
C213	C	-0.394904	-1.145449	-0.000072
C214	C	-0.144904	-0.895449	0.249928
C215	C	0.105096	-0.645449	0.499928
C216	C	0.355096	-0.395449	0.749928
C217	C	-0.344487	-1.146331	-0.000068
C218	C	-0.094487	-0.896331	0.249932
C219	C	0.155513	-0.646331	0.499932
C220	C	0.405513	-0.396331	0.749932
C221	C	-0.313530	-1.070183	-0.000064
C222	C	-0.063530	-0.820183	0.249936
C223	C	0.186470	-0.570183	0.499936
C224	C	0.436470	-0.320183	0.749936
C225	C	0.154553	-0.984115	-0.000098
C226	C	0.404553	-0.734115	0.249902
C227	C	0.654553	-0.484115	0.499902
C228	C	0.904553	-0.234115	0.749902
C229	C	0.208212	-0.985081	-0.000101
C230	C	0.458212	-0.735081	0.249899
C231	C	0.708212	-0.485081	0.499899
C232	C	0.958212	-0.235081	0.749899
N233	N	0.066188	-0.991413	-0.219569
N234	N	0.316188	-0.741413	0.030431
N235	N	0.566188	-0.491413	0.280431
N236	N	0.816188	-0.241413	0.530431
C237	C	0.020466	-0.530307	-0.000088
C238	C	0.270466	-0.280307	0.249912
C239	C	0.520466	-0.030307	0.499912
C240	C	0.770466	0.219693	0.749912
C241	C	0.042885	-0.468988	0.075952
C242	C	0.292885	-0.218988	0.325952
C243	C	0.542885	0.031012	0.575952
C244	C	0.792885	0.281012	0.825952
C245	C	0.067018	-0.573834	-0.000082
C246	C	0.317018	-0.323834	0.249918
C247	C	0.567018	-0.073834	0.499918
C248	C	0.817018	0.176166	0.749918
C249	C	0.042900	-0.469026	-0.076100
C250	C	0.292900	-0.219026	0.173900
C251	C	0.542900	0.030974	0.423900
C252	C	0.792900	0.280974	0.673900
C253	C	0.065343	-0.408943	-0.000097
C254	C	0.315343	-0.158943	0.249903
C255	C	0.565343	0.091057	0.499903
C256	C	0.815343	0.341057	0.749903
C257	C	0.089450	-0.513743	0.076020
C258	C	0.339450	-0.263743	0.326020
C259	C	0.589450	-0.013743	0.576020
C260	C	0.839450	0.236257	0.826020
C261	C	0.089459	-0.513787	-0.076101
C262	C	0.339459	-0.263787	0.173899
C263	C	0.589459	-0.013787	0.423899
C264	C	0.839459	0.236213	0.673899
C265	C	0.111911	-0.452485	-0.000043
C266	C	0.361911	-0.202485	0.249957
C267	C	0.611911	0.047515	0.499957
C268	C	0.861911	0.297515	0.749957
C269	C	0.067982	-0.668823	-0.000073
C270	C	0.317982	-0.418823	0.249927
C271	C	0.567982	-0.168823	0.499927
C272	C	0.817982	0.081177	0.749927
C273	C	0.064383	-0.313954	-0.000100
C274	C	0.314383	-0.063954	0.249900
C275	C	0.564383	0.186046	0.499900
C276	C	0.814383	0.436046	0.749900
C277	C	0.031868	-1.051499	-0.469202
C278	C	0.281868	-0.801499	-0.219202
C279	C	0.531868	-0.551499	0.030798
C280	C	0.781868	-0.301499	0.280798
C281	C	0.022478	-0.975722	-0.530991
C282	C	0.272478	-0.725722	-0.280991
C283	C	0.522478	-0.475722	-0.030991
C284	C	0.772478	-0.225722	0.219009
C285	C	0.066182	-0.991395	-0.408731
C286	C	0.316182	-0.741395	-0.158731
C287	C	0.566182	-0.491395	0.091269
C288	C	0.816182	-0.241395	0.341269
C289	C	0.075544	-1.067155	-0.531035
C290	C	0.325544	-0.817155	-0.281035
C291	C	0.575544	-0.567155	-0.031035
C292	C	0.825544	-0.317155	0.218965
C293	C	0.066176	-0.991384	-0.591452
C294	C	0.316176	-0.741384	-0.341452
C295	C	0.566176	-0.491384	-0.091452
C296	C	0.816176	-0.241384	0.158548
C297	C	0.056771	-0.915579	-0.469159
C298	C	0.306771	-0.665579	-0.219159
C299	C	0.556771	-0.415579	0.030841
C300	C	0.806771	-0.165579	0.280841
C301	C	0.109856	-1.007062	-0.469198
C302	C	0.359856	-0.757062	-0.219198
C303	C	0.609856	-0.507062	0.030802
C304	C	0.859856	-0.257062	0.280802
C305	C	0.100485	-0.931229	-0.530959
C306	C	0.350485	-0.681229	-0.280959
C307	C	0.600485	-0.431229	-0.030959
C308	C	0.850485	-0.181229	0.219041
C309	C	0.066185	-0.991402	-0.303469
C310	C	0.316185	-0.741402	-0.053469
C311	C	0.566185	-0.491402	0.196531
C312	C	0.816185	-0.241402	0.446531
C313	C	0.066173	-0.991367	-0.696711
C314	C	0.316173	-0.741367	-0.446711
C315	C	0.566173	-0.491367	-0.196711
C316	C	0.816173	-0.241367	0.053289
N317	N	0.066171	-0.991364	0.219380
N318	N	0.316171	-0.741364	0.469380
N319	N	0.566171	-0.491364	0.719380
N320	N	0.816171	-0.241364	0.969380
H321	H	-0.776671	-0.846193	-0.000103
H322	H	-0.526671	-0.596193	0.249897
H323	H	-0.276671	-0.346193	0.499897
H324	H	-0.026671	-0.096193	0.749897
Br325	Br	0.043498	-0.808760	-0.424057
Br326	Br	0.293498	-0.558760	-0.174057
Br327	Br	0.543498	-0.308760	0.075943
Br328	Br	0.793498	-0.058760	0.325943
Br329	Br	0.010067	-0.435887	0.183106
Br330	Br	0.260067	-0.185887	0.433106
Br331	Br	0.510067	0.064113	0.683106
Br332	Br	0.760067	0.314113	0.933106
H333	H	-0.685211	-0.847796	-0.000079
H334	H	-0.435211	-0.597796	0.249921
H335	H	-0.185211	-0.347796	0.499921
H336	H	0.064789	-0.097796	0.749921
H337	H	0.146781	-1.020348	-0.442034
H338	H	0.396781	-0.770348	-0.192034
H339	H	0.646781	-0.520348	0.057966
H340	H	0.896781	-0.270348	0.307966
H341	H	0.083465	-1.131229	-0.558214
H342	H	0.333465	-0.881229	-0.308214
H343	H	0.583465	-0.631229	-0.058214
H344	H	0.833465	-0.381229	0.191786
H345	H	-0.420105	-1.207460	-0.000074
H346	H	-0.170105	-0.957460	0.249926
H347	H	0.079895	-0.707460	0.499926
H348	H	0.329895	-0.457460	0.749926
H349	H	-0.182426	-1.134965	-0.000079
H350	H	0.067574	-0.884965	0.249921
H351	H	0.317574	-0.634965	0.499921
H352	H	0.567574	-0.384965	0.749921
Br353	Br	0.122241	-0.546614	0.183284
Br354	Br	0.372241	-0.296614	0.433284
Br355	Br	0.622241	-0.046614	0.683284
Br356	Br	0.872241	0.203386	0.933284
H357	H	-0.447540	-0.775290	-0.000064
H358	H	-0.197540	-0.525290	0.249936
H359	H	0.052460	-0.275290	0.499936
H360	H	0.302460	-0.025290	0.749936
Br361	Br	-0.172130	-0.815196	-0.000081
Br362	Br	0.077870	-0.565196	0.249919
Br363	Br	0.327870	-0.315196	0.499919
Br364	Br	0.577870	-0.065196	0.749919
Br365	Br	-0.549556	-0.731851	-0.000069
Br366	Br	-0.299556	-0.481851	0.249931
Br367	Br	-0.049556	-0.231851	0.499931
Br368	Br	0.200444	0.018149	0.749931
Br369	Br	-0.039085	-0.953606	-0.576222
Br370	Br	0.210915	-0.703606	-0.326222
Br371	Br	0.460915	-0.453606	-0.076222
Br372	Br	0.710915	-0.203606	0.173778
H373	H	0.002833	-1.102275	-0.442084
H374	H	0.252833	-0.852275	-0.192084
H375	H	0.502833	-0.602275	0.057916
H376	H	0.752833	-0.352275	0.307916
H377	H	-0.479908	-1.206419	-0.000061
H378	H	-0.229908	-0.956419	0.249939
H379	H	0.020092	-0.706419	0.499939
H380	H	0.270092	-0.456419	0.749939
Br381	Br	0.176370	-0.396378	0.000019
Br382	Br	0.426370	-0.146378	0.250019
Br383	Br	0.676370	0.103622	0.500019
Br384	Br	0.926370	0.353622	0.750019
Br385	Br	0.122254	-0.546929	-0.183257
Br386	Br	0.372254	-0.296929	0.066743
Br387	Br	0.622254	-0.046929	0.316743
Br388	Br	0.872254	0.203071	0.566743
Br389	Br	0.010074	-0.435983	-0.183244
Br390	Br	0.260074	-0.185983	0.066756
Br391	Br	0.510074	0.064017	0.316756
Br392	Br	0.760074	0.314017	0.566756
H393	H	0.129502	-0.880341	-0.557904
H394	H	0.379502	-0.630341	-0.307904
H395	H	0.629502	-0.380341	-0.057904
H396	H	0.879502	-0.130341	0.192096
H397	H	-0.070095	-0.858642	-0.000075
H398	H	0.179905	-0.608642	0.249925
H399	H	0.429905	-0.358642	0.499925
H400	H	0.679905	-0.108642	0.749925
H401	H	-0.090968	-1.136573	-0.000096
H402	H	0.159032	-0.886573	0.249904
H403	H	0.409032	-0.636573	0.499904
H404	H	0.659032	-0.386573	0.749904
H405	H	-0.706063	-1.125741	-0.000109
H406	H	-0.456063	-0.875741	0.249891
H407	H	-0.206063	-0.625741	0.499891
H408	H	0.043937	-0.375741	0.749891
Br409	Br	-0.814346	-1.165463	-0.000116
Br410	Br	-0.564346	-0.915463	0.249884
Br411	Br	-0.314346	-0.665463	0.499884
Br412	Br	-0.064346	-0.415463	0.749884
Br413	Br	-0.398308	-0.734515	-0.000063
Br414	Br	-0.148308	-0.484515	0.249937
Br415	Br	0.101692	-0.234515	0.499937
Br416	Br	0.351692	0.015485	0.749937
Br417	Br	-0.588173	-1.246145	-0.000048
Br418	Br	-0.338173	-0.996145	0.249952
Br419	Br	-0.088173	-0.746145	0.499952
Br420	Br	0.161827	-0.496145	0.749952
Br421	Br	-0.279469	-0.736624	-0.000055
Br422	Br	-0.029469	-0.486624	0.249945
Br423	Br	0.220531	-0.236624	0.499945
Br424	Br	0.470531	0.013376	0.749945
Br425	Br	-0.318087	-1.250899	-0.000066
Br426	Br	-0.068087	-1.000899	0.249934
Br427	Br	0.181913	-0.750899	0.499934
Br428	Br	0.431913	-0.500899	0.749934
Br429	Br	-0.043937	-0.586657	0.000034
Br430	Br	0.206063	-0.336657	0.250034
Br431	Br	0.456063	-0.086657	0.500034
Br432	Br	0.706063	0.163343	0.750034
