data_functionalizedCrystal
_audit_creation_method	'MofGen! by Chris Wilmer'
_symmetry_space_group_name_H-M	'P1'
_symmetry_Int_Tables_number	1
_symmetry_cell_setting	triclinic
loop_
_symmetry_equiv_pos_as_xyz
  x,y,z
_cell_length_a	10.540539
_cell_length_b	17.699083
_cell_length_c	16.776229
_cell_angle_alpha	90.007545
_cell_angle_beta	89.994937
_cell_angle_gamma	96.095747
loop_
_atom_site_label
_atom_site_type_symbol
_atom_site_fract_x
_atom_site_fract_y
_atom_site_fract_z
O1	O	1.683941	-0.106662	-0.066252
O2	O	2.183941	0.393338	0.433748
O3	O	1.314344	-0.116711	-0.066262
O4	O	1.814344	0.383289	0.433738
O5	O	1.509585	-0.001565	-0.066250
O6	O	2.009585	0.498435	0.433750
O7	O	1.488701	-0.221808	-0.066265
O8	O	1.988701	0.278192	0.433735
O9	O	1.509559	-0.001558	0.066326
O10	O	2.009559	0.498442	0.566326
O11	O	1.314318	-0.116704	0.066314
O12	O	1.814318	0.383296	0.566314
O13	O	1.683915	-0.106654	0.066324
O14	O	2.183915	0.393346	0.566324
Zn15	Zn	1.499113	-0.111678	0.087368
Zn16	Zn	1.999113	0.388322	0.587368
Zn17	Zn	1.499147	-0.111687	-0.087307
Zn18	Zn	1.999147	0.388313	0.412693
O19	O	1.488675	-0.221800	0.066312
O20	O	1.988675	0.278200	0.566312
C21	C	1.508823	0.026641	0.000038
C22	C	2.008823	0.526641	0.500038
C23	C	1.506578	0.110673	0.000038
C24	C	2.006578	0.610673	0.500038
C25	C	1.267042	-0.115954	0.000025
C26	C	1.767042	0.384046	0.500025
C27	C	1.126135	-0.113699	0.000021
C28	C	1.626135	0.386301	0.500021
C29	C	1.489436	-0.250006	0.000022
C30	C	1.989436	0.249994	0.500022
C31	C	1.491681	-0.334038	0.000016
C32	C	1.991681	0.165962	0.500016
C33	C	0.944289	-0.027300	0.000336
C34	C	1.444289	0.472700	0.500336
C35	C	1.090865	-0.029586	0.000029
C36	C	1.590865	0.470414	0.500029
C37	C	1.063737	-0.154182	-0.075686
C38	C	1.563737	0.345818	0.424314
C39	C	0.917245	-0.151311	-0.075741
C40	C	1.417245	0.348689	0.424259
C41	C	0.916696	-0.153014	0.075023
C42	C	1.416696	0.346986	0.575023
C43	C	1.063664	-0.153789	0.076015
C44	C	1.563664	0.346211	0.576015
C45	C	1.731217	-0.107412	0.000035
C46	C	2.231217	0.392588	0.500035
C47	C	1.872124	-0.109666	0.000034
C48	C	2.372124	0.390334	0.500034
N49	N	1.499099	-0.111671	0.206580
N50	N	1.999099	0.388329	0.706580
C51	C	1.621180	0.158549	0.000043
C52	C	2.121180	0.658549	0.500043
C53	C	1.619064	0.237506	0.000036
C54	C	2.119064	0.737506	0.500036
C55	C	1.502343	0.268586	0.000030
C56	C	2.002343	0.768586	0.500030
C57	C	1.387732	0.220704	0.000023
C58	C	1.887732	0.720704	0.500023
C59	C	1.389851	0.141748	0.000025
C60	C	1.889851	0.641748	0.500025
C61	C	1.379187	0.539122	0.000017
C62	C	1.879187	1.039122	0.500017
C63	C	1.377078	0.618084	0.000018
C64	C	1.877078	1.118084	0.500018
C65	C	1.608400	0.634880	0.000027
C66	C	2.108400	1.134880	0.500027
C67	C	1.610518	0.555925	0.000029
C68	C	2.110518	1.055925	0.500029
C69	C	1.495908	0.508050	0.000018
C70	C	1.995908	1.008050	0.500018
C71	C	1.498205	0.422436	0.000024
C72	C	1.998205	0.922436	0.500024
C73	C	1.500045	0.354198	0.000029
C74	C	2.000045	0.854198	0.500029
N75	N	1.499171	-0.111688	-0.206518
N76	N	1.999171	0.388312	0.293482
C77	C	1.585577	-0.060705	0.248302
C78	C	2.085577	0.439295	0.748302
C79	C	1.585584	-0.060705	0.331754
C80	C	2.085584	0.439295	0.831754
C81	C	1.499118	-0.111674	0.373483
C82	C	1.999118	0.388326	0.873483
C83	C	1.412630	-0.162642	0.331754
C84	C	1.912630	0.337358	0.831754
C85	C	1.412618	-0.162638	0.248304
C86	C	1.912618	0.337362	0.748304
C87	C	1.412676	-0.162657	0.668301
C88	C	1.912676	0.337343	1.168301
C89	C	1.412697	-0.162658	0.751758
C90	C	1.912697	0.337342	1.251758
C91	C	1.585642	-0.060724	0.751752
C92	C	2.085642	0.439276	1.251752
C93	C	1.585630	-0.060720	0.668302
C94	C	2.085630	0.439280	1.168302
C95	C	1.499139	-0.111685	0.626581
C96	C	1.999139	0.388315	1.126581
C97	C	1.499130	-0.111684	0.536092
C98	C	1.999130	0.388316	1.036092
C99	C	1.499131	-0.111679	0.463969
C100	C	1.999131	0.388321	0.963969
H101	H	1.134051	0.002268	0.054300
H102	H	1.634051	0.502268	0.554300
C103	C	0.874749	-0.116230	0.152549
C104	C	1.374749	0.383770	0.652549
N105	N	0.843158	-0.088515	0.210937
N106	N	1.343158	0.411485	0.710937
H107	H	1.285864	0.500152	0.000008
H108	H	1.785864	1.000152	0.500008
H109	H	1.656065	-0.019223	0.785730
H110	H	2.156065	0.480777	1.285730
C111	C	1.263779	0.089085	0.000022
C112	C	1.763779	0.589085	0.500022
N113	N	1.168818	0.049419	0.000018
N114	N	1.668818	0.549419	0.500018
C115	C	1.119669	-0.113812	0.151681
C116	C	1.619669	0.386188	0.651681
N117	N	1.161851	-0.083695	0.208671
N118	N	1.661851	0.416305	0.708671
H119	H	1.086767	-0.215113	0.080582
H120	H	1.586767	0.284887	0.580582
C121	C	1.749584	0.124370	0.000049
C122	C	2.249584	0.624370	0.500049
N123	N	1.846302	0.098628	0.000050
N124	N	2.346302	0.598628	0.500050
H125	H	1.655994	-0.019204	0.214333
H126	H	2.155994	0.480796	0.714333
C127	C	0.904294	0.017405	-0.072589
C128	C	1.404294	0.517405	0.427411
N129	N	0.874165	0.051076	-0.127516
N130	N	1.374165	0.551076	0.372484
H131	H	1.701721	0.673870	0.000032
H132	H	2.201721	1.173870	0.500032
C133	C	1.317495	-0.218710	0.202409
C134	C	1.817495	0.281290	0.702409
N135	N	1.245845	-0.260946	0.167843
N136	N	1.745845	0.239054	0.667843
H137	H	1.656001	-0.019205	0.365725
H138	H	2.156001	0.480795	0.865725
H139	H	1.342254	-0.204155	0.634339
H140	H	1.842254	0.295845	1.134339
H141	H	0.868358	-0.213769	0.075530
H142	H	1.368358	0.286231	0.575530
C143	C	1.248670	0.652269	0.000005
C144	C	1.748670	1.152269	0.500005
N145	N	1.151959	0.678018	-0.000005
N146	N	1.651959	1.178018	0.499995
H147	H	1.106851	-0.126066	-0.132026
H148	H	1.606851	0.373934	0.367974
C149	C	1.259338	0.254894	0.000024
C150	C	1.759338	0.754894	0.500024
N151	N	1.162629	0.280646	0.000030
N152	N	1.662629	0.780646	0.500030
C153	C	1.317504	-0.218701	0.377658
C154	C	1.817504	0.281299	0.877658
N155	N	1.245852	-0.260926	0.412232
N156	N	1.745852	0.239074	0.912232
H157	H	1.712384	0.276484	0.000041
H158	H	2.212384	0.776484	0.500041
C159	C	1.092415	-0.237631	-0.079503
C160	C	1.592415	0.262369	0.420497
N161	N	1.114019	-0.300484	-0.082377
N162	N	1.614019	0.199516	0.417623
H163	H	1.342281	-0.204165	0.785732
H164	H	1.842281	0.295835	1.285732
H165	H	0.916300	0.005933	0.054631
H166	H	1.416300	0.505933	0.554631
C167	C	1.738919	0.521742	0.000035
C168	C	2.238919	1.021742	0.500035
N169	N	1.835634	0.495997	0.000036
N170	N	2.335634	0.995997	0.500036
C171	C	1.148073	0.013739	-0.073412
C172	C	1.648073	0.513739	0.426588
N173	N	1.191161	0.046372	-0.128732
N174	N	1.691161	0.546372	0.371268
C175	C	1.680747	-0.004649	0.622405
C176	C	2.180747	0.495351	1.122405
N177	N	1.752387	0.037589	0.587837
N178	N	2.252387	0.537589	1.087837
H179	H	0.868170	-0.211805	-0.079182
H180	H	1.368170	0.288195	0.420818
C181	C	0.879887	-0.110890	-0.152185
C182	C	1.379887	0.389110	0.347815
N183	N	0.851756	-0.080441	-0.209762
N184	N	1.351756	0.419559	0.290238
