data_functionalizedCrystal
_audit_creation_method	'MofGen! by Chris Wilmer'
_symmetry_space_group_name_H-M	'P1'
_symmetry_Int_Tables_number	1
_symmetry_cell_setting	triclinic
loop_
_symmetry_equiv_pos_as_xyz
  x,y,z
_cell_length_a	13.897448
_cell_length_b	12.759395
_cell_length_c	12.759387
_cell_angle_alpha	89.981185
_cell_angle_beta	90.033869
_cell_angle_gamma	89.980771
loop_
_atom_site_label
_atom_site_type_symbol
_atom_site_fract_x
_atom_site_fract_y
_atom_site_fract_z
Zn1	Zn	-0.383913	-1.606229	0.593991
Zn2	Zn	-0.545244	-1.606116	0.418306
Zn3	Zn	-0.383969	-1.430533	0.418328
Zn4	Zn	-0.545173	-1.430511	0.593945
O5	O	-0.464575	-1.518347	0.506142
O6	O	-0.405321	-1.753235	0.570696
O7	O	-0.523904	-1.582786	0.271287
O8	O	-0.248980	-1.453896	0.441659
O9	O	-0.523850	-1.753152	0.441621
O10	O	-0.248939	-1.582979	0.570718
O11	O	-0.405416	-1.453786	0.271304
O12	O	-0.405347	-1.283509	0.441614
O13	O	-0.523728	-1.453858	0.740972
O14	O	-0.523782	-1.283492	0.570639
O15	O	-0.405251	-1.582958	0.741006
O16	O	-0.680216	-1.582765	0.441576
O17	O	-0.680164	-1.453748	0.570617
C18	C	-0.464563	-1.245380	0.506124
C19	C	-0.464581	-1.128603	0.506142
C20	C	-0.715189	-1.518270	0.506112
C21	C	-0.822403	-1.518334	0.506134
C22	C	-0.464475	-1.518418	0.780176
C23	C	-0.464433	-1.518449	0.896953
C24	C	-1.018698	-1.518444	0.506200
C25	C	-0.909466	-1.518380	0.506167
C26	C	-0.212982	-1.518453	0.506196
C27	C	-0.105768	-1.518498	0.506219
C28	C	-0.464587	-1.792381	0.506161
C29	C	-0.464593	-1.909157	0.506169
C30	C	-0.588108	-1.128625	0.640278
C31	C	-0.649878	-1.073775	0.707349
C32	C	-0.649890	-0.964053	0.707362
C33	C	-0.588122	-0.909179	0.640299
C34	C	-0.526352	-0.964029	0.573227
C35	C	-0.526349	-1.073753	0.573220
C36	C	-0.402822	-0.964007	0.439098
C37	C	-0.402814	-1.073729	0.439078
C38	C	-0.341054	-0.909133	0.372035
C39	C	-0.279287	-0.963983	0.304957
C40	C	-0.279279	-1.073711	0.304946
C41	C	-0.341043	-1.128579	0.372007
C42	C	-0.464605	-1.518337	0.233175
C43	C	-0.464375	-1.518510	0.116399
C44	C	-0.341043	-1.384130	0.896989
C45	C	-0.279329	-1.316989	0.951868
C46	C	-0.279294	-1.317021	1.061589
C47	C	-0.340982	-1.384198	1.116435
C48	C	-0.402696	-1.451338	1.061556
C49	C	-0.402722	-1.451301	0.951832
C50	C	-0.526089	-1.585650	1.061520
C51	C	-0.526121	-1.585626	0.951798
C52	C	-0.587777	-1.652827	1.116365
C53	C	-0.649488	-1.719974	1.061487
C54	C	-0.649520	-1.719941	0.951758
C55	C	-0.587835	-1.652766	0.896919
H56	H	-0.700167	-1.118465	0.761952
C57	C	-0.716684	-1.792775	0.892312
C58	C	-0.812108	-1.769865	0.918993
C59	C	-0.874007	-1.836946	0.864266
H60	H	-0.708003	-1.783205	0.819094
H61	H	-0.702634	-1.863397	0.910324
H62	H	-0.826153	-1.699260	0.900973
H63	H	-0.820820	-1.779441	0.992201
H64	H	-0.859957	-1.907568	0.882279
H65	H	-0.865317	-1.827371	0.791051
H66	H	-0.938758	-1.821417	0.882369
C67	C	-0.716402	-1.793072	1.120897
C68	C	-0.695433	-1.897026	1.094208
C69	C	-0.757062	-1.964393	1.148910
H70	H	-0.707608	-1.783613	1.194119
H71	H	-0.781231	-1.777723	1.102870
H72	H	-0.630619	-1.912369	1.112243
H73	H	-0.704232	-1.906518	1.020996
H74	H	-0.821891	-1.949045	1.130882
H75	H	-0.748264	-1.954925	1.222128
H76	H	-0.742849	-2.034933	1.130801
H77	H	-0.341057	-1.384106	0.807648
C78	C	-0.588307	-0.790052	0.640432
C79	C	-0.655636	-0.753762	0.713509
C80	C	-0.655841	-0.644028	0.713648
H81	H	-0.526140	-0.765125	0.658762
H82	H	-0.604962	-0.765158	0.572621
H83	H	-0.638976	-0.778645	0.781305
H84	H	-0.717812	-0.778660	0.695195
H85	H	-0.672496	-0.619135	0.645837
H86	H	-0.593671	-0.619111	0.731976
H87	H	-0.701529	-0.619391	0.763222
H88	H	-0.341064	-0.819792	0.372054
H89	H	-0.228996	-0.919296	0.250364
H90	H	-0.229106	-1.262293	0.907200
C91	C	-0.587910	-1.652991	1.235492
C92	C	-0.655153	-1.726174	1.271774
C93	C	-0.655307	-1.726353	1.381507
H94	H	-0.525714	-1.671243	1.260453
H95	H	-0.604617	-1.585212	1.260358
H96	H	-0.638441	-1.793938	1.246918
H97	H	-0.717358	-1.707938	1.246841
H98	H	-0.672014	-1.658574	1.406373
H99	H	-0.593108	-1.744604	1.406458
H100	H	-0.700936	-1.776000	1.406138
H101	H	-0.588111	-1.217966	0.640266
C102	C	-0.212177	-1.133069	0.232005
C103	C	-0.158110	-1.061524	0.173264
C104	C	-0.096297	-1.116162	0.106048
H105	H	-0.170106	-1.175909	0.272152
H106	H	-0.249000	-1.175815	0.186090
H107	H	-0.121290	-1.018797	0.219173
H108	H	-0.200156	-1.018682	0.133095
H109	H	-0.133120	-1.158907	0.060133
H110	H	-0.054232	-1.159000	0.146204
H111	H	-0.059611	-1.067627	0.066178
H112	H	-0.587852	-1.652736	0.807578
C113	C	-0.340775	-1.384108	1.235562
C114	C	-0.273515	-1.310945	1.271883
C115	C	-0.273291	-1.310844	1.381617
H116	H	-0.402957	-1.365879	1.260490
H117	H	-0.324048	-1.451903	1.260433
H118	H	-0.290248	-1.243164	1.247023
H119	H	-0.211324	-1.329157	1.246983
H120	H	-0.256564	-1.378639	1.406488
H121	H	-0.335476	-1.292617	1.406535
H122	H	-0.227650	-1.261211	1.406275
H123	H	-0.700184	-0.919395	0.761982
H124	H	-0.341045	-1.217920	0.372002
H125	H	-0.229042	-1.262348	1.106271
