data_functionalizedCrystal
_audit_creation_method	'MofGen! by Chris Wilmer'
_symmetry_space_group_name_H-M	'P1'
_symmetry_Int_Tables_number	1
_symmetry_cell_setting	triclinic
loop_
_symmetry_equiv_pos_as_xyz
  x,y,z
_cell_length_a	17.077404
_cell_length_b	18.101395
_cell_length_c	17.077396
_cell_angle_alpha	89.972533
_cell_angle_beta	89.980499
_cell_angle_gamma	90.031329
loop_
_atom_site_label
_atom_site_type_symbol
_atom_site_fract_x
_atom_site_fract_y
_atom_site_fract_z
Zn1	Zn	1.200010	-0.294825	-0.443848
Zn2	Zn	1.199898	-0.418674	-0.312585
Zn3	Zn	1.068742	-0.294851	-0.312596
Zn4	Zn	1.068691	-0.418630	-0.443808
O5	O	1.134335	-0.356745	-0.378209
O6	O	1.309842	-0.311261	-0.426448
O7	O	1.182474	-0.402278	-0.202739
O8	O	1.086223	-0.191215	-0.330029
O9	O	1.309760	-0.402253	-0.330009
O10	O	1.182665	-0.191196	-0.426459
O11	O	1.086114	-0.311306	-0.202748
O12	O	0.958888	-0.311263	-0.329990
O13	O	1.086136	-0.402178	-0.553660
O14	O	0.958851	-0.402203	-0.426391
O15	O	1.182616	-0.311219	-0.553690
O16	O	1.182425	-0.522301	-0.329970
O17	O	1.086028	-0.522269	-0.426379
C18	C	0.930387	-0.356732	-0.378188
C19	C	0.843137	-0.356744	-0.378197
C20	C	0.802148	-0.404167	-0.428312
C21	C	0.720168	-0.404169	-0.428325
C22	C	0.679178	-0.356750	-0.378218
C23	C	0.720173	-0.309321	-0.328100
C24	C	0.802152	-0.309316	-0.328092
C25	C	0.549303	-0.309336	-0.328119
C26	C	0.467318	-0.309341	-0.328126
C27	C	0.467319	-0.404188	-0.428352
C28	C	0.549298	-0.404184	-0.428344
C29	C	0.590287	-0.356755	-0.378225
C30	C	1.134230	-0.549156	-0.378186
C31	C	1.134257	-0.631470	-0.378203
C32	C	1.134429	-0.930561	-0.378245
C33	C	1.073919	-0.899246	-0.439054
C34	C	1.073632	-0.813628	-0.438863
C35	C	1.134344	-0.782178	-0.378225
C36	C	1.111947	-0.813330	-0.295495
C37	C	1.111557	-0.898975	-0.295859
C38	C	1.217469	-0.898904	-0.399437
C39	C	1.216980	-0.813253	-0.401252
C40	C	1.134297	-0.698319	-0.378208
C41	C	1.134474	-1.014420	-0.378256
C42	C	1.339079	-0.356759	-0.378231
C43	C	1.426329	-0.356765	-0.378241
C44	C	1.134383	-0.356690	-0.582954
C45	C	1.134403	-0.356667	-0.670203
C46	C	1.134462	-0.163583	-0.378250
C47	C	1.134516	-0.081269	-0.378267
C48	C	1.184642	-0.309301	-0.711210
C49	C	1.184651	-0.309276	-0.793191
C50	C	1.134425	-0.356622	-0.834163
C51	C	1.084181	-0.403990	-0.793150
C52	C	1.084168	-0.404011	-0.711171
C53	C	1.084212	-0.403946	-0.964021
C54	C	1.084226	-0.403927	-1.046005
C55	C	1.184695	-0.309211	-1.046040
C56	C	1.184683	-0.309232	-0.964061
C57	C	1.134439	-0.356601	-0.923054
C58	C	1.134333	-0.356746	-0.174261
C59	C	1.134465	-0.356561	-0.087012
H60	H	0.582674	-0.270708	-0.287314
O61	O	1.241967	-0.924562	-0.470151
C62	C	1.316477	-0.895146	-0.487368
H63	H	1.346784	-0.878358	-0.430628
H64	H	1.309710	-0.844656	-0.526713
C65	C	1.328846	-0.974514	-0.599361
C66	C	1.366072	-0.953901	-0.529671
H67	H	1.359439	-1.010755	-0.625458
H68	H	1.278646	-0.994331	-0.587764
H69	H	1.323209	-0.932434	-0.632139
H70	H	1.371700	-0.995979	-0.496890
H71	H	1.416275	-0.934093	-0.541264
O72	O	1.035317	-0.450007	-0.832827
C73	C	0.990986	-0.491831	-0.779051
H74	H	0.988277	-0.461510	-0.720621
H75	H	1.019694	-0.548079	-0.770322
C76	C	0.910769	-0.539734	-0.882794
C77	C	0.907435	-0.502491	-0.811031
H78	H	0.859231	-0.546313	-0.902522
H79	H	0.940637	-0.511559	-0.919025
H80	H	0.934696	-0.586604	-0.875510
H81	H	0.883518	-0.455619	-0.818318
H82	H	0.877561	-0.530659	-0.774802
H83	H	1.043251	-0.442574	-0.677785
H84	H	0.835516	-0.442784	-0.469113
O85	O	1.035386	-0.449806	-1.085888
C86	C	0.984718	-0.407612	-1.133289
H87	H	1.012459	-0.351496	-1.145589
H88	H	0.926552	-0.399465	-1.101682
C89	C	0.936402	-0.517256	-1.196043
C90	C	0.970476	-0.448335	-1.211155
H91	H	0.927613	-0.542376	-1.244072
H92	H	0.970536	-0.545684	-1.164106
H93	H	0.887934	-0.510456	-1.169701
H94	H	1.018948	-0.455136	-1.237487
H95	H	0.936350	-0.419909	-1.243098
O96	O	0.680442	-0.263294	-0.279318
C97	C	0.700416	-0.279393	-0.201049
H98	H	0.759924	-0.307854	-0.199361
H99	H	0.654248	-0.317440	-0.174543
C100	C	0.631127	-0.172183	-0.155708
C101	C	0.704219	-0.207133	-0.153635
H102	H	0.633470	-0.127611	-0.126459
H103	H	0.617667	-0.161338	-0.208439
H104	H	0.592661	-0.203896	-0.133621
H105	H	0.742682	-0.175424	-0.175729
H106	H	0.717686	-0.217972	-0.100906
H107	H	1.012081	-0.793205	-0.424826
H108	H	1.225604	-0.270640	-1.079432
H109	H	1.050855	-0.919018	-0.277907
H110	H	0.835524	-0.270695	-0.287287
H111	H	1.087644	-0.792564	-0.500206
H112	H	1.154633	-0.792959	-0.248952
O113	O	0.680473	-0.450315	-0.477023
C114	C	0.734230	-0.492161	-0.521253
H115	H	0.792654	-0.494673	-0.489091
H116	H	0.742986	-0.465125	-0.580926
C117	C	0.630449	-0.567914	-0.571904
C118	C	0.702203	-0.571004	-0.532399
H119	H	0.610692	-0.616548	-0.578784
H120	H	0.594230	-0.539721	-0.542109
H121	H	0.637755	-0.545381	-0.621628
H122	H	0.694895	-0.593528	-0.482673
H123	H	0.738420	-0.599204	-0.562187
H124	H	0.433946	-0.270720	-0.287333
H125	H	0.582670	-0.442800	-0.469141
H126	H	1.233870	-0.792890	-0.462136
O127	O	1.273513	-0.787668	-0.352177
C128	C	1.239429	-0.740854	-0.295704
H129	H	1.174586	-0.754654	-0.289460
H130	H	1.246188	-0.680882	-0.314983
C131	C	1.360297	-0.735140	-0.224077
C132	C	1.280658	-0.752093	-0.216403
H133	H	1.385731	-0.742069	-0.175160
H134	H	1.383262	-0.766677	-0.262125
H135	H	1.365920	-0.685164	-0.240145
H136	H	1.275037	-0.802071	-0.200345
H137	H	1.257693	-0.720565	-0.178350
H138	H	1.087793	-0.919793	-0.500595
H139	H	1.012743	-0.920833	-0.425192
O140	O	0.427385	-0.450188	-0.477017
C141	C	0.346239	-0.440036	-0.466272
H142	H	0.335060	-0.382853	-0.440674
H143	H	0.322931	-0.483912	-0.424390
C144	C	0.317916	-0.517157	-0.577129
C145	C	0.304185	-0.446921	-0.545695
H146	H	0.291974	-0.521406	-0.626120
H147	H	0.372585	-0.523999	-0.584367
H148	H	0.298492	-0.553712	-0.542220
H149	H	0.323618	-0.410367	-0.580599
H150	H	0.249518	-0.440073	-0.538465
H151	H	1.043287	-0.442508	-0.930635
H152	H	1.153718	-0.919692	-0.249007
O153	O	1.040232	-0.787913	-0.273787
C154	C	0.983828	-0.810902	-0.328917
H155	H	1.006117	-0.861863	-0.361152
H156	H	0.972903	-0.764536	-0.372769
C157	C	0.879490	-0.767219	-0.246768
C158	C	0.906863	-0.829813	-0.286355
H159	H	0.832013	-0.778881	-0.220515
H160	H	0.917490	-0.751728	-0.209626
H161	H	0.870392	-0.728586	-0.283318
H162	H	0.915970	-0.868442	-0.249804
H163	H	0.868863	-0.845311	-0.323489
O164	O	1.233457	-0.263239	-0.671535
C165	C	1.277814	-0.221440	-0.725312
H166	H	1.245671	-0.218860	-0.783744
H167	H	1.337415	-0.248560	-0.734036
C168	C	1.328651	-0.145797	-0.621573
C169	C	1.289170	-0.142624	-0.693338
H170	H	1.335660	-0.097181	-0.601849
H171	H	1.298770	-0.173960	-0.585341
H172	H	1.378315	-0.168401	-0.628852
H173	H	1.239504	-0.120029	-0.686055
H174	H	1.319043	-0.114456	-0.729567
H175	H	1.262551	-0.919154	-0.355148
H176	H	1.225585	-0.270683	-0.930704
O177	O	1.233484	-0.263365	-0.833116
C178	C	1.284173	-0.305515	-0.880531
H179	H	1.256457	-0.361635	-0.892791
H180	H	1.342341	-0.313659	-0.848956
C181	C	1.332449	-0.195820	-0.943358
C182	C	1.298405	-0.264745	-0.958422
H183	H	1.341231	-0.170670	-0.991403
H184	H	1.298302	-0.167422	-0.911412
H185	H	1.380919	-0.202616	-0.917043
H186	H	1.249932	-0.257947	-0.984727
H187	H	1.332545	-0.293141	-0.990374
