data_functionalizedCrystal
_audit_creation_method	'MofGen! by Chris Wilmer'
_symmetry_space_group_name_H-M	'P1'
_symmetry_Int_Tables_number	1
_symmetry_cell_setting	triclinic
loop_
_symmetry_equiv_pos_as_xyz
  x,y,z
_cell_length_a	16.625547
_cell_length_b	16.625546
_cell_length_c	10.686551
_cell_angle_alpha	94.409858
_cell_angle_beta	94.401304
_cell_angle_gamma	90.022405
loop_
_atom_site_label
_atom_site_type_symbol
_atom_site_fract_x
_atom_site_fract_y
_atom_site_fract_z
Zn1	Zn	1.267698	-0.285960	0.713627
Zn2	Zn	1.517698	-0.035960	0.963627
Zn3	Zn	1.767698	0.214040	1.213627
Zn4	Zn	2.017698	0.464040	1.463627
Zn5	Zn	1.257247	-0.431165	0.502605
Zn6	Zn	1.507247	-0.181165	0.752605
Zn7	Zn	1.757247	0.068835	1.002605
Zn8	Zn	2.007247	0.318835	1.252605
Zn9	Zn	1.122506	-0.296349	0.502618
Zn10	Zn	1.372506	-0.046349	0.752618
Zn11	Zn	1.622506	0.203651	1.002618
Zn12	Zn	1.872506	0.453651	1.252618
Zn13	Zn	1.132826	-0.420758	0.713537
Zn14	Zn	1.382826	-0.170758	0.963537
Zn15	Zn	1.632826	0.079242	1.213537
Zn16	Zn	1.882826	0.329242	1.463537
O17	O	1.195069	-0.358558	0.608097
O18	O	1.445069	-0.108558	0.858097
O19	O	1.695069	0.141442	1.108097
O20	O	1.945069	0.391442	1.358097
O21	O	1.379146	-0.305229	0.685667
O22	O	1.629146	-0.055229	0.935667
O23	O	1.879146	0.194771	1.185667
O24	O	2.129146	0.444771	1.435667
O25	O	1.230680	-0.421984	0.326023
O26	O	1.480680	-0.171984	0.576023
O27	O	1.730680	0.078016	0.826023
O28	O	1.980680	0.328016	1.076023
O29	O	1.141821	-0.182136	0.530652
O30	O	1.391821	0.067864	0.780652
O31	O	1.641821	0.317864	1.030652
O32	O	1.891821	0.567864	1.280652
O33	O	1.371467	-0.411910	0.530630
O34	O	1.621467	-0.161910	0.780630
O35	O	1.871467	0.088090	1.030630
O36	O	2.121467	0.338090	1.280630
O37	O	1.248493	-0.174503	0.685680
O38	O	1.498493	0.075497	0.935680
O39	O	1.748493	0.325497	1.185680
O40	O	1.998493	0.575497	1.435680
O41	O	1.131686	-0.322936	0.326032
O42	O	1.381686	-0.072936	0.576032
O43	O	1.631686	0.177064	0.826032
O44	O	1.881686	0.427064	1.076032
O45	O	1.011041	-0.312845	0.530564
O46	O	1.261041	-0.062845	0.780564
O47	O	1.511041	0.187155	1.030564
O48	O	1.761041	0.437155	1.280564
O49	O	1.159410	-0.394174	0.890133
O50	O	1.409410	-0.144174	1.140133
O51	O	1.659410	0.105826	1.390133
O52	O	1.909410	0.355826	1.640133
O53	O	1.018623	-0.404248	0.685525
O54	O	1.268623	-0.154248	0.935525
O55	O	1.518623	0.095752	1.185525
O56	O	1.768623	0.345752	1.435525
O57	O	1.258501	-0.295138	0.890199
O58	O	1.508501	-0.045138	1.140199
O59	O	1.758501	0.204862	1.390199
O60	O	2.008501	0.454862	1.640199
O61	O	1.240687	-0.542619	0.530542
O62	O	1.490687	-0.292619	0.780542
O63	O	1.740687	-0.042619	1.030542
O64	O	1.990687	0.207381	1.280542
O65	O	1.149276	-0.534973	0.685513
O66	O	1.399276	-0.284973	0.935513
O67	O	1.649276	-0.034973	1.185513
O68	O	1.899276	0.215027	1.435513
C69	C	0.985576	-0.358545	0.608037
C70	C	1.235576	-0.108545	0.858037
C71	C	1.485576	0.141455	1.108037
C72	C	1.735576	0.391455	1.358037
C73	C	0.895955	-0.358558	0.608042
C74	C	1.145955	-0.108558	0.858042
C75	C	1.395955	0.141442	1.108042
C76	C	1.645955	0.391442	1.358042
C77	C	0.823173	-0.358558	0.608057
C78	C	1.073173	-0.108558	0.858057
C79	C	1.323173	0.141442	1.108057
C80	C	1.573173	0.391442	1.358057
C81	C	0.731866	-0.358561	0.608089
C82	C	0.981866	-0.108561	0.858089
C83	C	1.231866	0.141439	1.108089
C84	C	1.481866	0.391439	1.358089
C85	C	0.659091	-0.358567	0.608121
C86	C	0.909091	-0.108567	0.858121
C87	C	1.159091	0.141433	1.108121
C88	C	1.409091	0.391433	1.358121
C89	C	0.567778	-0.358571	0.608151
C90	C	0.817778	-0.108571	0.858151
C91	C	1.067778	0.141429	1.108151
C92	C	1.317778	0.391429	1.358151
C93	C	1.194990	-0.568051	0.608044
C94	C	1.444990	-0.318051	0.858044
C95	C	1.694990	-0.068051	1.108044
C96	C	1.944990	0.181949	1.358044
C97	C	1.195033	-0.657672	0.608064
C98	C	1.445033	-0.407672	0.858064
C99	C	1.695033	-0.157672	1.108064
C100	C	1.945033	0.092328	1.358064
C101	C	1.195180	-0.985841	0.608195
C102	C	1.445180	-0.735841	0.858195
C103	C	1.695180	-0.485841	1.108195
C104	C	1.945180	-0.235841	1.358195
C105	C	1.195136	-0.894534	0.608162
C106	C	1.445136	-0.644534	0.858162
C107	C	1.695136	-0.394534	1.108162
C108	C	1.945136	-0.144534	1.358162
C109	C	1.195105	-0.821759	0.608129
C110	C	1.445105	-0.571759	0.858129
C111	C	1.695105	-0.321759	1.108129
C112	C	1.945105	-0.071759	1.358129
C113	C	1.195063	-0.730446	0.608097
C114	C	1.445063	-0.480446	0.858097
C115	C	1.695063	-0.230446	1.108097
C116	C	1.945063	0.019554	1.358097
C117	C	1.405381	-0.358571	0.608157
C118	C	1.655381	-0.108571	0.858157
C119	C	1.905381	0.141429	1.108157
C120	C	2.155381	0.391429	1.358157
C121	C	1.495004	-0.358577	0.608183
C122	C	1.745004	-0.108577	0.858183
C123	C	1.995004	0.141423	1.108183
C124	C	2.245004	0.391423	1.358183
C125	C	1.211273	-0.342336	0.937232
C126	C	1.461273	-0.092336	1.187232
C127	C	1.711273	0.157664	1.437232
C128	C	1.961273	0.407664	1.687232
C129	C	1.218177	-0.335423	1.077490
C130	C	1.468177	-0.085423	1.327490
C131	C	1.718177	0.164577	1.577490
C132	C	1.968177	0.414577	1.827490
C133	C	1.195172	-0.148245	0.608177
C134	C	1.445172	0.101755	0.858177
C135	C	1.695172	0.351755	1.108177
C136	C	1.945172	0.601755	1.358177
C137	C	1.195216	-0.058622	0.608212
C138	C	1.445216	0.191378	0.858212
C139	C	1.695216	0.441378	1.108212
C140	C	1.945216	0.691378	1.358212
C141	C	1.178976	-0.374659	0.280242
C142	C	1.428976	-0.124659	0.530242
C143	C	1.678976	0.125341	0.780242
C144	C	1.928976	0.375341	1.030242
C145	C	1.172227	-0.381344	0.139984
C146	C	1.422227	-0.131344	0.389984
C147	C	1.672227	0.118656	0.639984
C148	C	1.922227	0.368656	0.889984
H149	H	1.262806	-0.290820	1.131294
H150	H	1.512806	-0.040820	1.381294
H151	H	1.762806	0.209180	1.631294
H152	H	2.012806	0.459180	1.881294
H153	H	1.127607	-0.425950	1.086187
H154	H	1.377607	-0.175950	1.336187
H155	H	1.627607	0.074050	1.586187
H156	H	1.877607	0.324050	1.836187
