data_functionalizedCrystal
_audit_creation_method	'MofGen! by Chris Wilmer'
_symmetry_space_group_name_H-M	'P1'
_symmetry_Int_Tables_number	1
_symmetry_cell_setting	triclinic
loop_
_symmetry_equiv_pos_as_xyz
  x,y,z
_cell_length_a	12.837943
_cell_length_b	18.266242
_cell_length_c	12.811415
_cell_angle_alpha	95.437182
_cell_angle_beta	89.411917
_cell_angle_gamma	90.007711
loop_
_atom_site_label
_atom_site_type_symbol
_atom_site_fract_x
_atom_site_fract_y
_atom_site_fract_z
O1	O	1.376641	0.078989	0.272981
O2	O	1.074777	0.078098	0.259496
O3	O	1.233302	0.068446	0.114205
O4	O	1.218116	0.088641	0.418272
O5	O	1.233275	-0.053316	0.114194
O6	O	1.074750	-0.043665	0.259485
O7	O	1.376614	-0.042774	0.272970
Zn8	Zn	1.225678	-0.062552	0.266226
Zn9	Zn	1.225713	0.097876	0.266240
O10	O	1.218089	-0.033122	0.418261
C11	C	1.036123	0.016915	0.254935
C12	C	0.920987	0.016015	0.241349
N13	N	1.225661	-0.172039	0.266216
C14	C	0.680735	0.026851	0.404680
C15	C	0.572554	0.026005	0.391919
C16	C	0.596442	0.013471	0.203068
C17	C	0.704623	0.014317	0.215829
C18	C	0.746765	0.021009	0.316638
C19	C	0.854948	0.021860	0.329398
C20	C	0.878834	0.009320	0.140547
C21	C	0.770653	0.008474	0.127787
C22	C	1.295879	-0.214619	0.201918
C23	C	1.295885	-0.291265	0.201914
C24	C	1.225684	-0.325325	0.266227
C25	C	1.155453	-0.282736	0.330528
C26	C	1.155441	-0.206093	0.330523
N27	N	1.212885	-0.439575	0.357821
N28	N	1.212903	-0.512383	0.357823
C29	C	1.225713	-0.556247	0.266245
N30	N	1.238526	-0.524552	0.174663
N31	N	1.238514	-0.451738	0.174662
C32	C	1.225688	-0.408432	0.266239
C33	C	1.295942	-0.681935	0.201937
C34	C	1.295941	-0.758581	0.201931
C35	C	1.155514	-0.750050	0.330555
C36	C	1.155509	-0.673406	0.330551
C37	C	1.225729	-0.639352	0.266244
C38	C	1.415268	0.018411	0.277531
C39	C	1.530403	0.019316	0.291117
C40	C	1.232436	0.004964	0.075010
C41	C	1.229887	-0.002787	-0.041764
N42	N	1.225738	0.207363	0.266243
C43	C	1.225106	0.115410	-0.261172
C44	C	1.222710	0.108131	-0.370891
C45	C	1.222691	-0.024622	-0.370923
C46	C	1.225087	-0.017344	-0.261204
C47	C	1.226296	0.052675	-0.206332
C48	C	1.228699	0.059953	-0.096611
C49	C	1.228673	-0.072800	-0.096645
C50	C	1.226277	-0.080079	-0.206364
C51	C	1.218954	0.030362	0.457456
C52	C	1.221504	0.038117	0.574230
H53	H	0.889258	0.027307	0.411481
C54	C	1.371959	-0.337558	0.131970
C55	C	1.316453	-0.386201	0.062118
C56	C	1.386495	-0.428850	-0.002338
H57	H	1.415312	-0.364716	0.173977
H58	H	1.413764	-0.306331	0.093604
H59	H	1.274666	-0.417425	0.100480
H60	H	1.273104	-0.359063	0.020087
H61	H	1.428299	-0.397623	-0.040703
H62	H	1.429844	-0.456003	0.039679
H63	H	1.348844	-0.461855	-0.049746
H64	H	1.221699	-0.081628	-0.415618
C65	C	1.079448	-0.627074	0.400446
C66	C	1.134963	-0.578410	0.470263
C67	C	1.064926	-0.535712	0.534660
H68	H	1.037613	-0.658245	0.438849
H69	H	1.036126	-0.599936	0.358362
H70	H	1.178267	-0.605545	0.512342
H71	H	1.176795	-0.547224	0.431890
H72	H	1.021604	-0.508575	0.492576
H73	H	1.023094	-0.566889	0.573055
H74	H	1.102582	-0.502685	0.582031
C75	C	1.079239	-0.787125	0.400207
C76	C	1.015542	-0.835293	0.337886
C77	C	0.945269	-0.869469	0.402012
H78	H	1.037318	-0.750868	0.438523
H79	H	1.116704	-0.813907	0.447657
H80	H	0.978080	-0.808513	0.290455
H81	H	1.057433	-0.871564	0.299571
H82	H	0.982734	-0.896251	0.449462
H83	H	0.903356	-0.833206	0.440326
H84	H	0.902048	-0.902159	0.359739
C85	C	1.371896	-0.177480	0.132068
C86	C	1.435656	-0.129196	0.194129
C87	C	1.505553	-0.094924	0.129728
H88	H	1.334177	-0.150769	0.084744
H89	H	1.413794	-0.213701	0.093618
H90	H	1.393763	-0.092980	0.232562
H91	H	1.473398	-0.155889	0.241452
H92	H	1.547451	-0.131144	0.091278
H93	H	1.467825	-0.068216	0.082406
H94	H	1.548829	-0.062164	0.171827
C95	C	1.225022	-0.156032	-0.266135
C96	C	1.222696	-0.148981	-0.373962
C97	C	1.221560	-0.218934	-0.429053
H98	H	1.165026	-0.182051	-0.246327
H99	H	1.285843	-0.182244	-0.250183
H100	H	1.161882	-0.122779	-0.389907
H101	H	1.282687	-0.122974	-0.393801
H102	H	1.282380	-0.245147	-0.413101
H103	H	1.161563	-0.244948	-0.409236
H104	H	1.219991	-0.214160	-0.502219
H105	H	0.518795	0.030761	0.463613
H106	H	0.562110	0.007962	0.120994
H107	H	0.715048	0.032301	0.486762
C108	C	1.229754	-0.140894	-0.037045
C109	C	1.142006	-0.140420	0.028825
C110	C	1.142966	-0.203140	0.083731
H111	H	1.291027	-0.141008	0.003877
H112	H	1.228637	-0.183652	-0.085411
H113	H	1.143132	-0.097674	0.077185
H114	H	1.080720	-0.140317	-0.012071
H115	H	1.141849	-0.245897	0.035365
H116	H	1.204242	-0.203248	0.124647
H117	H	1.083425	-0.202830	0.128422
H118	H	1.098292	-0.310472	0.382891
C119	C	1.079325	-0.159885	0.400524
C120	C	1.096604	-0.171542	0.505405
C121	C	1.026517	-0.128980	0.569924
H122	H	1.010022	-0.173635	0.382295
H123	H	1.089380	-0.109350	0.391386
H124	H	1.086540	-0.222066	0.514539
H125	H	1.165893	-0.157788	0.523667
H126	H	1.036572	-0.078444	0.560786
H127	H	0.957218	-0.142733	0.551686
H128	H	1.038237	-0.136878	0.641093
C129	C	0.724693	0.001254	0.018429
C130	C	0.615819	0.001780	0.026095
C131	C	0.573449	-0.004858	-0.074626
H132	H	0.747208	-0.043637	-0.018380
H133	H	0.747278	0.041297	-0.018282
H134	H	0.593244	-0.038261	0.062789
H135	H	0.593276	0.046666	0.062885
H136	H	0.596034	0.035185	-0.111336
H137	H	0.595971	-0.049749	-0.111427
H138	H	0.499574	-0.004496	-0.069438
H139	H	1.353116	-0.654208	0.149571
H140	H	0.932609	0.004568	0.068857
H141	H	1.226099	0.172422	-0.216495
C142	C	1.372302	-0.804685	0.132084
C143	C	1.433810	-0.758452	0.075793
C144	C	1.504176	-0.800896	0.011452
H145	H	1.334943	-0.837753	0.084527
H146	H	1.415686	-0.831762	0.174189
H147	H	1.390432	-0.731387	0.033691
H148	H	1.471191	-0.725383	0.123324
H149	H	1.547560	-0.827973	0.053557
H150	H	1.466808	-0.833963	-0.036099
H151	H	1.545924	-0.769533	-0.026742
C152	C	1.229952	0.136034	-0.037221
C153	C	1.228365	0.189416	-0.108736
C154	C	1.229500	0.259512	-0.054067
H155	H	1.291273	0.141612	0.003624
H156	H	1.170458	0.141798	0.007522
H157	H	1.287853	0.183655	-0.153460
H158	H	1.167048	0.183862	-0.149583
H159	H	1.170007	0.265276	-0.009325
H160	H	1.290823	0.265082	-0.013224
H161	H	1.228415	0.295740	-0.102581
C162	C	1.221461	0.176333	-0.430244
C163	C	1.223050	0.239206	-0.358702
C164	C	1.221906	0.302050	-0.413339
H165	H	1.160135	0.176479	-0.471082
H166	H	1.280951	0.176173	-0.474991
H167	H	1.163567	0.239367	-0.313974
H168	H	1.284372	0.239085	-0.317862
H169	H	1.281395	0.301890	-0.458086
H170	H	1.160579	0.302188	-0.454175
H171	H	1.222994	0.344716	-0.364807
