data_functionalizedCrystal
_audit_creation_method	'MofGen! by Chris Wilmer'
_symmetry_space_group_name_H-M	'P1'
_symmetry_Int_Tables_number	1
_symmetry_cell_setting	triclinic
loop_
_symmetry_equiv_pos_as_xyz
  x,y,z
_cell_length_a	14.519709
_cell_length_b	11.792241
_cell_length_c	10.268362
_cell_angle_alpha	89.999626
_cell_angle_beta	89.999088
_cell_angle_gamma	96.063220
loop_
_atom_site_label
_atom_site_type_symbol
_atom_site_fract_x
_atom_site_fract_y
_atom_site_fract_z
O1	O	-0.126405	1.506208	-0.108155
O2	O	0.123595	1.756208	0.141845
O3	O	0.373595	2.006208	0.391845
O4	O	0.623595	2.256208	0.641845
O5	O	-0.139432	1.175795	-0.108183
O6	O	0.110568	1.425795	0.141817
O7	O	0.360568	1.675795	0.391817
O8	O	0.610568	1.925795	0.641817
O9	O	0.001288	1.349762	-0.108180
O10	O	0.251288	1.599762	0.141820
O11	O	0.501288	1.849762	0.391820
O12	O	0.751288	2.099762	0.641820
O13	O	-0.267125	1.332241	-0.108158
O14	O	-0.017125	1.582241	0.141842
O15	O	0.232875	1.832241	0.391842
O16	O	0.482875	2.082241	0.641842
O17	O	0.001294	1.349747	0.108421
O18	O	0.251294	1.599747	0.358421
O19	O	0.501294	1.849747	0.608421
O20	O	0.751294	2.099747	0.858421
O21	O	-0.139426	1.175780	0.108418
O22	O	0.110574	1.425780	0.358418
O23	O	0.360574	1.675780	0.608418
O24	O	0.610574	1.925780	0.858418
O25	O	-0.126399	1.506193	0.108446
O26	O	0.123601	1.756193	0.358446
O27	O	0.373601	2.006193	0.608446
O28	O	0.623601	2.256193	0.858446
Cu29	Cu	-0.132912	1.340985	0.128209
Cu30	Cu	0.117088	1.590985	0.378209
Cu31	Cu	0.367088	1.840985	0.628209
Cu32	Cu	0.617088	2.090985	0.878209
Cu33	Cu	-0.132919	1.341003	-0.127946
Cu34	Cu	0.117081	1.591003	0.122054
Cu35	Cu	0.367081	1.841003	0.372054
Cu36	Cu	0.617081	2.091003	0.622054
O37	O	-0.267119	1.332226	0.108443
O38	O	-0.017119	1.582226	0.358443
O39	O	0.232881	1.832226	0.608443
O40	O	0.482881	2.082226	0.858443
C41	C	-0.138611	1.133501	0.000113
C42	C	0.111389	1.383501	0.250113
C43	C	0.361389	1.633501	0.500113
C44	C	0.611389	1.883501	0.750113
C45	C	-0.136161	1.007501	0.000102
C46	C	0.113839	1.257501	0.250102
C47	C	0.363839	1.507501	0.500102
C48	C	0.613839	1.757501	0.750102
C49	C	-0.131657	0.776813	0.000139
C50	C	0.118343	1.026813	0.250139
C51	C	0.368343	1.276813	0.500139
C52	C	0.618343	1.526813	0.750139
C53	C	-0.134160	0.905185	0.000118
C54	C	0.115840	1.155185	0.250118
C55	C	0.365840	1.405185	0.500118
C56	C	0.615840	1.655185	0.750118
C57	C	-0.301484	1.333050	0.000146
C58	C	-0.051484	1.583050	0.250146
C59	C	0.198516	1.833050	0.500146
C60	C	0.448516	2.083050	0.750146
C61	C	-0.403875	1.335497	0.000155
C62	C	-0.153875	1.585497	0.250155
C63	C	0.096125	1.835497	0.500155
C64	C	0.346125	2.085497	0.750155
C65	C	-0.778803	1.344505	0.000104
C66	C	-0.528803	1.594505	0.250104
C67	C	-0.278803	1.844505	0.500104
C68	C	-0.028803	2.094505	0.750104
C69	C	-0.674486	1.342003	0.000118
C70	C	-0.424486	1.592003	0.250118
C71	C	-0.174486	1.842003	0.500118
C72	C	0.075514	2.092003	0.750118
C73	C	-0.591342	1.340001	0.000130
C74	C	-0.341342	1.590001	0.250130
C75	C	-0.091342	1.840001	0.500130
C76	C	0.158658	2.090001	0.750130
C77	C	-0.487019	1.337499	0.000143
C78	C	-0.237019	1.587499	0.250143
C79	C	0.012981	1.837499	0.500143
C80	C	0.262981	2.087499	0.750143
C81	C	0.035654	1.348938	0.000115
C82	C	0.285654	1.598938	0.250115
C83	C	0.535654	1.848938	0.500115
C84	C	0.785654	2.098938	0.750115
C85	C	0.138044	1.346491	0.000097
C86	C	0.388044	1.596491	0.250097
C87	C	0.638044	1.846491	0.500097
C88	C	0.888044	2.096491	0.750097
C89	C	-0.127220	1.548487	0.000147
C90	C	0.122780	1.798487	0.250147
C91	C	0.372780	2.048487	0.500147
C92	C	0.622780	2.298487	0.750147
C93	C	-0.129669	1.674487	0.000150
C94	C	0.120331	1.924487	0.250150
C95	C	0.370331	2.174487	0.500150
C96	C	0.620331	2.424487	0.750150
N97	N	-0.132906	1.340981	0.308375
N98	N	0.117094	1.590981	0.558375
N99	N	0.367094	1.840981	0.808375
N100	N	0.617094	2.090981	1.058375
N101	N	-0.132917	1.341016	-0.308112
N102	N	0.117083	1.591016	-0.058112
N103	N	0.367083	1.841016	0.191888
N104	N	0.617083	2.091016	0.441888
C105	C	-0.132917	1.340997	0.574046
C106	C	0.117083	1.590997	0.824046
C107	C	0.367083	1.840997	1.074046
C108	C	0.617083	2.090997	1.324046
C109	C	-0.132914	1.340984	0.426208
C110	C	0.117086	1.590984	0.676208
C111	C	0.367086	1.840984	0.926208
C112	C	0.617086	2.090984	1.176208
