data_functionalizedCrystal
_audit_creation_method	'MofGen! by Chris Wilmer'
_symmetry_space_group_name_H-M	'P1'
_symmetry_Int_Tables_number	1
_symmetry_cell_setting	triclinic
loop_
_symmetry_equiv_pos_as_xyz
  x,y,z
_cell_length_a	10.654550
_cell_length_b	10.489763
_cell_length_c	9.730223
_cell_angle_alpha	90.006112
_cell_angle_beta	90.003749
_cell_angle_gamma	84.516631
loop_
_atom_site_label
_atom_site_type_symbol
_atom_site_fract_x
_atom_site_fract_y
_atom_site_fract_z
O1	O	-1.667932	-0.179155	-0.114419
O2	O	-1.302463	-0.196224	-0.114399
O3	O	-1.493499	-0.002089	-0.114384
O4	O	-1.476896	-0.373289	-0.114434
O5	O	-1.493497	-0.002094	0.114196
O6	O	-1.302461	-0.196229	0.114181
O7	O	-1.667930	-0.179160	0.114161
Zn8	Zn	-1.485195	-0.187695	0.150463
Zn9	Zn	-1.485198	-0.187688	-0.150701
O10	O	-1.476894	-0.373294	0.114146
C11	C	-1.255663	-0.194973	-0.000106
C12	C	-1.116218	-0.191223	-0.000097
C13	C	-1.492238	0.045439	-0.000090
C14	C	-1.488468	0.187065	-0.000079
C15	C	-1.714730	-0.180410	-0.000135
C16	C	-1.854175	-0.184160	-0.000153
C17	C	-1.036795	-0.305527	-0.000132
C18	C	-0.905772	-0.301996	-0.000156
C19	C	-0.933608	-0.069848	-0.000113
C20	C	-1.064629	-0.073380	-0.000080
C21	C	-1.020723	-0.439556	-0.000163
C22	C	-0.889700	-0.436025	-0.000186
C23	C	-1.366903	0.255146	-0.000075
C24	C	-1.424318	0.347293	0.112632
C25	C	-1.424349	0.347272	-0.112730
C26	C	-1.545934	0.277347	0.112721
C27	C	-1.545948	0.277317	-0.112742
C28	C	-1.603452	0.369436	-0.000008
N29	N	-1.485202	-0.187699	0.355999
C30	C	-1.478135	0.579175	-0.000127
C31	C	-1.481845	0.437542	-0.000076
N32	N	-1.485201	-0.187675	-0.356237
C33	C	-1.569815	-0.101765	0.427932
C34	C	-1.569812	-0.101750	0.571815
C35	C	-1.400579	-0.273612	0.571820
C36	C	-1.400577	-0.273621	0.427940
C37	C	-1.667524	-0.002545	0.427930
C38	C	-1.667521	-0.002530	0.571813
H39	H	-1.129291	0.019697	-0.000032
H40	H	-1.331668	-0.343583	0.369373
H41	H	-0.847996	-0.486523	-0.095860
H42	H	-1.764044	-0.024385	0.610855
H43	H	-1.331678	-0.343567	0.630409
H44	H	-1.372880	0.378277	0.207919
H45	H	-0.891588	0.026096	-0.000121
H46	H	-1.597326	0.246538	0.208102
H47	H	-1.703484	0.418908	0.000054
H48	H	-1.266960	0.205447	0.000040
H49	H	-1.597343	0.246299	-0.208034
H50	H	-1.646027	0.095499	0.388891
H51	H	-1.372897	0.378213	-0.208013
H52	H	-1.758725	-0.033612	0.383294
H53	H	-1.636957	0.090121	0.616444
H54	H	-1.050082	-0.491976	0.095496
H55	H	-1.056402	-0.482230	-0.098856
H56	H	-0.844050	-0.476532	0.098493
