data_functionalizedCrystal
_audit_creation_method	'MofGen! by Chris Wilmer'
_symmetry_space_group_name_H-M	'P1'
_symmetry_Int_Tables_number	1
_symmetry_cell_setting	triclinic
loop_
_symmetry_equiv_pos_as_xyz
  x,y,z
_cell_length_a	14.809374
_cell_length_b	19.851628
_cell_length_c	14.809374
_cell_angle_alpha	67.422855
_cell_angle_beta	91.387536
_cell_angle_gamma	52.851689
loop_
_atom_site_label
_atom_site_type_symbol
_atom_site_fract_x
_atom_site_fract_y
_atom_site_fract_z
Zr1	Zr	0.992134	0.573053	-0.008533
O2	O	0.846190	0.713581	-0.154500
O3	O	1.036863	0.432525	0.036219
O4	O	1.058118	0.541746	-0.133249
O5	O	0.808181	0.629056	0.148642
O6	O	1.225303	0.517051	-0.116491
O7	O	0.824935	0.604360	0.014968
O8	O	1.187282	0.321674	0.186655
O9	O	0.846202	0.824433	-0.154505
O10	O	1.180721	0.471896	0.067805
O11	O	1.043449	0.508756	0.155058
O12	O	1.068474	0.637350	-0.044468
O13	O	0.931203	0.674210	0.042785
Zr14	Zr	1.232055	0.573053	0.231388
Zr15	Zr	1.258775	0.533667	0.018194
Zr16	Zr	0.965414	0.612440	0.204661
Zr17	Zr	0.992154	0.749848	-0.008541
Zr18	Zr	1.232035	0.396258	0.231396
O19	O	1.187326	0.713581	0.186637
O20	O	1.225319	0.657579	-0.116498
O21	O	0.808197	0.769584	0.148635
O22	O	1.378000	0.432525	0.377355
O23	O	1.415993	0.376523	0.074220
O24	O	0.998870	0.488527	0.339353
O25	O	1.416008	0.517051	0.074214
O26	O	1.166071	0.604360	0.356104
O27	O	0.998886	0.629056	0.339347
O28	O	1.399255	0.541746	0.207888
O29	O	1.058146	0.793126	-0.133261
O30	O	1.166043	0.352981	0.356116
O31	O	1.377987	0.321674	0.377360
O32	O	1.399226	0.290367	0.207899
O33	O	0.824963	0.855740	0.014956
O34	O	1.036907	0.824433	0.036200
O35	O	1.155715	0.508756	0.267323
O36	O	1.292986	0.471896	0.180070
O37	O	1.180740	0.637350	0.067797
O38	O	1.043468	0.674210	0.155050
C39	C	0.778567	0.622320	0.077997
C40	C	0.665371	0.639040	0.066651
C41	C	1.112070	0.351910	0.111438
C42	C	1.112061	0.276856	0.111442
C43	C	0.670586	0.564418	0.117287
C44	C	0.553594	0.581698	0.105561
C45	C	1.037237	0.115590	0.159009
C46	C	0.999692	0.115880	0.060261
C47	C	1.112083	0.139430	0.111430
C48	C	1.149593	0.005426	0.210151
C49	C	1.112103	0.006682	0.111426
C50	C	1.074477	0.140755	0.012620
C51	C	1.224434	0.030257	0.162584
C52	C	1.186925	0.030567	0.063783
C53	C	1.112069	0.215904	0.111433
C54	C	1.112116	-0.069787	0.111413
C55	C	1.445622	0.523787	0.144859
C56	C	1.558818	0.507066	0.156205
C57	C	1.145518	0.523787	-0.155246
C58	C	1.156861	0.507066	-0.245752
C59	C	1.112120	0.794197	0.111417
C60	C	1.112128	0.869251	0.111414
C61	C	1.106237	0.581688	-0.341798
C62	C	1.117960	0.564408	-0.435342
C63	C	1.078671	0.622320	0.378101
C64	C	1.067328	0.639040	0.468608
C65	C	1.445597	0.302644	0.144869
C66	C	1.558785	0.210869	0.156219
C67	C	1.078647	0.401176	0.378111
C68	C	1.067295	0.342843	0.468621
C69	C	1.412174	0.351910	0.411542
C70	C	1.514018	0.276856	0.513399
C71	C	0.812015	0.794197	-0.188687
C72	C	0.710171	0.869251	-0.290543
C73	C	0.778592	0.843463	0.077986
C74	C	0.665404	0.935238	0.066637
C75	C	1.145543	0.744930	-0.155256
C76	C	1.156895	0.803264	-0.245766
C77	C	1.553339	0.167769	0.102938
C78	C	1.659683	0.081545	0.113582
C79	C	1.771471	0.038418	0.177512
C80	C	1.776915	0.081526	0.230793
C81	C	1.670573	0.167752	0.220144
C82	C	1.120564	0.315451	0.569736
C83	C	1.109892	0.260652	0.654788
C84	C	1.045957	0.233241	0.638723
C85	C	0.992681	0.260640	0.537597
C86	C	1.003346	0.315443	0.452547
C87	C	1.633511	0.222368	0.515687
C88	C	1.729216	0.151853	0.611385
C89	C	1.705425	0.135824	0.704792
C90	C	1.585920	0.190321	0.702501
C91	C	1.490218	0.260838	0.606804
C92	C	0.590678	0.923747	-0.292832
C93	C	0.494974	0.994284	-0.388529
C94	C	0.518764	1.010317	-0.481937
C95	C	0.638269	0.955816	-0.479645
C96	C	0.733971	0.885286	-0.383949
C97	C	0.670851	0.978343	0.119908
C98	C	0.564510	1.064583	0.109241
C99	C	0.452722	1.107711	0.045308
C100	C	0.447278	1.064601	-0.007969
C101	C	0.553619	0.978367	0.002692
C102	C	1.220838	0.830656	-0.229668
C103	C	1.231528	0.885455	-0.314701
C104	C	1.178266	0.912866	-0.415832
C105	C	1.114321	0.885467	-0.431928
C106	C	1.103639	0.830664	-0.346895
H107	H	0.761664	0.487740	0.169324
H108	H	0.462515	0.658383	0.053527
C109	C	0.681858	0.403467	0.226506
N110	N	0.774531	0.325437	0.279455
C111	C	1.034249	0.172945	0.732293
N112	N	1.025441	0.127524	0.802775
H113	H	1.462327	0.202878	0.050869
H114	H	1.858053	-0.031794	0.186175
C115	C	1.168518	0.230513	0.766018
N116	N	1.212681	0.207810	0.849795
C117	C	1.227139	0.403473	-0.228218
N118	N	1.280072	0.325445	-0.215008
C119	C	0.922362	0.230474	0.519944
N120	N	0.869405	0.207745	0.506651
H121	H	1.867947	0.046399	0.282844
H122	H	1.172625	0.337763	0.582836
C123	C	0.363527	1.054223	-0.391027
N124	N	0.264525	1.099367	-0.392905
H125	H	0.959971	0.337737	0.370218
H126	H	1.392924	0.305196	0.604955
C127	C	0.564479	0.906133	-0.190094
N128	N	0.544736	0.892877	-0.112715
H129	H	1.283595	0.907759	-0.301575
C130	C	1.659710	0.239989	0.412949
N131	N	1.679454	0.253261	0.335570
H132	H	1.655227	0.046457	0.070191
C133	C	0.570525	1.111982	0.167865
N134	N	0.575058	1.147679	0.212023
C135	C	0.542331	0.742633	-0.003647
N136	N	0.449656	0.820661	-0.056599
H137	H	1.826514	0.107486	0.613232
H138	H	1.186972	0.957492	-0.485062
C139	C	1.352748	-0.017614	0.221071
N140	N	1.449396	-0.053672	0.265135
H141	H	1.566567	0.177258	0.778566
C142	C	0.413475	1.087898	-0.587198
N143	N	0.334166	1.146330	-0.666478
C144	C	1.810714	0.058241	0.810054
N145	N	1.890023	-0.000199	0.889333
H146	H	0.657626	0.968879	-0.555709
H147	H	1.070958	0.907794	-0.514280
C148	C	1.192445	-0.072835	0.322942
N149	N	1.224713	-0.131775	0.407897
C150	C	1.033275	0.800553	-0.364623
N151	N	0.980270	0.777880	-0.377984
H152	H	0.356246	1.099730	-0.060023
H153	H	0.973877	0.152327	0.199167
H154	H	0.904687	0.151338	0.016990
C155	C	1.188241	0.460810	-0.417801
N156	N	1.241174	0.382781	-0.404591
C157	C	0.793808	0.930922	0.190236
N158	N	0.886417	0.895213	0.243205
C159	C	0.997041	0.742640	-0.548937
N160	N	0.944099	0.820671	-0.562150
H161	H	0.831266	0.840912	-0.382097
C162	C	0.335754	1.202569	0.033597
N163	N	0.247656	1.274013	0.024783
C164	C	1.031470	0.218992	-0.100237
N165	N	0.999072	0.277923	-0.185240
C166	C	1.279445	0.800508	-0.118430
N167	N	1.323599	0.777797	-0.034646
H168	H	1.250223	-0.005979	0.023479
H169	H	1.054222	0.658366	-0.354772
H170	H	1.675023	0.202835	0.263538
H171	H	0.549167	0.943274	-0.040687
