data_functionalizedCrystal
_audit_creation_method	'MofGen! by Chris Wilmer'
_symmetry_space_group_name_H-M	'P1'
_symmetry_Int_Tables_number	1
_symmetry_cell_setting	triclinic
loop_
_symmetry_equiv_pos_as_xyz
  x,y,z
_cell_length_a	23.532355
_cell_length_b	23.532407
_cell_length_c	22.010155
_cell_angle_alpha	89.999577
_cell_angle_beta	89.997414
_cell_angle_gamma	82.838088
loop_
_atom_site_label
_atom_site_type_symbol
_atom_site_fract_x
_atom_site_fract_y
_atom_site_fract_z
O1	O	0.755283	0.068986	-0.050449
O2	O	0.589415	0.079020	-0.050469
O3	O	0.677351	-0.008929	-0.050447
O4	O	0.667347	0.156936	-0.050470
O5	O	0.677335	-0.008916	0.050603
O6	O	0.589399	0.079033	0.050582
O7	O	0.755267	0.068999	0.050602
Cu8	Cu	0.672332	0.074018	0.059818
Cu9	Cu	0.672351	0.074002	-0.059685
O10	O	0.667331	0.156949	0.050580
C11	C	0.568191	0.078776	0.000054
C12	C	0.504972	0.078022	0.000047
C13	C	0.112950	0.073291	0.055155
C14	C	0.053550	0.072574	0.055158
O15	O	0.022824	0.072189	0.102003
N16	N	0.023850	0.072211	0.000076
C17	C	0.053554	0.072559	-0.055013
O18	O	0.022838	0.072184	-0.101864
C19	C	0.112953	0.073273	-0.055015
C20	C	0.142649	0.073641	0.000071
C21	C	0.142646	0.073659	0.110237
C22	C	0.202041	0.074378	0.110234
C23	C	0.231740	0.074728	0.055150
C24	C	0.202044	0.074360	0.000069
C25	C	0.142656	0.073617	-0.110102
C26	C	0.202059	0.074330	-0.110099
C27	C	0.231755	0.074699	-0.055014
C28	C	0.291138	0.075429	-0.055018
N29	N	0.320838	0.075792	0.000064
C30	C	0.291139	0.075441	0.055148
C31	C	-0.071188	0.071060	-0.055005
C32	C	-0.130586	0.070351	-0.055004
C33	C	-0.130585	0.070364	0.055167
C34	C	-0.071187	0.071078	0.055165
C35	C	-0.041488	0.071423	0.000077
C36	C	0.415873	0.076951	0.055138
C37	C	0.475273	0.077672	0.055131
C38	C	0.475268	0.077655	-0.055040
C39	C	0.415872	0.076938	-0.055032
C40	C	0.386177	0.076583	0.000061
O41	O	0.321902	0.075811	-0.101839
O42	O	0.321863	0.075809	0.101992
C43	C	0.677088	-0.030139	0.000080
C44	C	0.676322	-0.093356	0.000084
C45	C	0.723557	-0.492468	0.000057
C46	C	0.722845	-0.551868	0.000052
O47	O	0.766632	-0.588620	0.000035
N48	N	0.670568	-0.574484	0.000046
C49	C	0.618998	-0.537697	0.000039
O50	O	0.574467	-0.562388	0.000033
C51	C	0.619710	-0.478298	0.000039
C52	C	0.671991	-0.455685	0.000051
C53	C	0.775834	-0.469854	0.000068
C54	C	0.776545	-0.410458	0.000074
C55	C	0.724979	-0.373676	0.000068
C56	C	0.672703	-0.396289	0.000057
C57	C	0.568141	-0.441512	0.000027
C58	C	0.568858	-0.382110	0.000027
C59	C	0.621139	-0.359497	0.000039
C60	C	0.621848	-0.300110	0.000057
N61	N	0.674126	-0.277494	0.000063
C62	C	0.725691	-0.314277	0.000069
C63	C	0.617507	-0.662439	0.000037
C64	C	0.616794	-0.721837	0.000041
C65	C	0.720642	-0.736004	0.000053
C66	C	0.721354	-0.676605	0.000053
C67	C	0.669784	-0.639823	0.000043
C68	C	0.727181	-0.189540	0.000082
C69	C	0.727888	-0.130138	0.000090
C70	C	0.624041	-0.115977	0.000074
C71	C	0.623334	-0.175373	0.000069
C72	C	0.674909	-0.212154	0.000071
O73	O	0.578084	-0.263323	0.000072
O74	O	0.770216	-0.289577	0.000067
C75	C	0.776491	0.069244	0.000078
C76	C	0.839710	0.069998	0.000081
C77	C	0.667594	0.178158	0.000052
C78	C	0.668360	0.241375	0.000043
N79	N	0.672323	0.074028	0.143871
N80	N	0.672364	0.073987	-0.143738
C81	C	0.711291	0.035063	0.563660
C82	C	0.711293	0.035059	0.627267
O83	O	0.744402	0.001938	0.660167
N84	N	0.672350	0.073990	0.659078
C85	C	0.633398	0.112923	0.627277
O86	O	0.600274	0.146036	0.660175
C87	C	0.633393	0.112924	0.563671
C88	C	0.672343	0.073995	0.531864
C89	C	0.750236	-0.003863	0.531853
C90	C	0.750234	-0.003858	0.468249
C91	C	0.711286	0.035073	0.436453
C92	C	0.672341	0.074000	0.468261
C93	C	0.594439	0.151854	0.531872
C94	C	0.594437	0.151851	0.468261
C95	C	0.633387	0.112922	0.436454
C96	C	0.633391	0.112936	0.372861
N97	N	0.672334	0.074005	0.341051
C98	C	0.711282	0.035074	0.372847
C99	C	0.633411	0.112918	0.760855
C100	C	0.633418	0.112921	0.824461
C101	C	0.711313	0.035056	0.824446
C102	C	0.711308	0.035057	0.760840
C103	C	0.672354	0.073988	0.729045
C104	C	0.711275	0.035087	0.239276
C105	C	0.711270	0.035097	0.175667
C106	C	0.633374	0.112959	0.175687
C107	C	0.633380	0.112952	0.239290
C108	C	0.672332	0.074011	0.271083
O109	O	0.600297	0.146039	0.339921
O110	O	0.744395	0.001961	0.339941
H111	H	-0.154761	0.070060	-0.099860
H112	H	0.526863	-0.352164	0.000018
Cl113	Cl	-0.167932	0.069921	0.124417
Cl114	Cl	0.793617	-0.101715	0.000104
H115	H	0.601669	0.144657	0.265188
H116	H	0.781953	-0.035568	0.557735
H117	H	0.118488	0.073317	-0.154959
H118	H	0.601691	0.144625	0.734971
H119	H	-0.047011	0.071347	-0.099867
Cl120	Cl	0.552670	-0.616204	0.000030
H121	H	0.781949	-0.035560	0.442356
Cl122	Cl	0.760273	-0.013886	0.720861
Cl123	Cl	0.557608	-0.203802	0.000066
H124	H	0.226236	0.074612	-0.154960
Cl125	Cl	0.378538	0.076483	-0.124284
H126	H	0.562723	0.183554	0.557760
Cl127	Cl	0.512615	0.078092	-0.124285
H128	H	0.769178	-0.219481	0.000080
Cl129	Cl	0.378550	0.076505	0.124400
Cl130	Cl	0.785467	-0.782256	0.000056
Cl131	Cl	0.502412	-0.469924	0.000008
H132	H	0.574222	-0.740243	0.000042
H133	H	0.819117	-0.392053	0.000081
Cl134	Cl	0.545462	0.200796	0.428295
Cl135	Cl	0.840668	-0.516085	0.000076
H136	H	0.743025	0.003355	0.850346
H137	H	0.118471	0.073373	0.155095
Cl138	Cl	0.559219	-0.069725	0.000066
Cl139	Cl	-0.033861	0.071539	0.124419
H140	H	0.763925	-0.658198	0.000063
H141	H	0.742990	0.003396	0.149771
Cl142	Cl	0.584459	0.161870	0.864440
H143	H	0.742992	0.003377	0.265154
Cl144	Cl	0.584413	0.161900	0.135705
H145	H	0.499448	0.077974	0.099990
H146	H	0.226214	0.074674	0.155091
