data_functionalizedCrystal
_audit_creation_method	'MofGen! by Chris Wilmer'
_symmetry_space_group_name_H-M	'P1'
_symmetry_Int_Tables_number	1
_symmetry_cell_setting	triclinic
loop_
_symmetry_equiv_pos_as_xyz
  x,y,z
_cell_length_a	17.699077
_cell_length_b	16.176319
_cell_length_c	17.699104
_cell_angle_alpha	90.005487
_cell_angle_beta	96.713953
_cell_angle_gamma	90.003161
loop_
_atom_site_label
_atom_site_type_symbol
_atom_site_fract_x
_atom_site_fract_y
_atom_site_fract_z
O1	O	1.004086	0.068737	-0.095676
O2	O	0.783708	0.068742	-0.108133
O3	O	0.900115	0.068732	0.008283
O4	O	0.887679	0.068747	-0.212093
O5	O	0.900104	-0.068761	0.008262
O6	O	0.783697	-0.068752	-0.108155
O7	O	1.004075	-0.068756	-0.095698
Cu8	Cu	0.893885	-0.081308	-0.101928
Cu9	Cu	0.893898	0.081294	-0.101903
O10	O	0.887668	-0.068746	-0.212114
C11	C	0.755506	-0.000005	-0.107698
C12	C	0.671487	-0.000003	-0.106362
N13	N	0.893881	-0.195673	-0.101945
C14	C	0.632014	-0.074952	-0.105743
C15	C	0.553071	-0.074953	-0.104475
C16	C	0.513603	-0.000004	-0.103831
C17	C	0.553082	0.074950	-0.104447
C18	C	0.632024	0.074950	-0.105710
C19	C	0.234718	0.074951	-0.099354
C20	C	0.155771	0.074945	-0.098093
C21	C	0.155765	-0.074951	-0.098119
C22	C	0.234707	-0.074951	-0.099382
C23	C	0.274180	0.000002	-0.099994
C24	C	0.359779	0.000003	-0.101367
C25	C	0.428005	-0.000003	-0.102463
C26	C	0.848087	-0.761065	-0.056040
C27	C	0.848085	-0.674518	-0.056046
C28	C	0.893902	-0.631249	-0.101896
C29	C	0.939728	-0.674530	-0.147738
C30	C	0.939733	-0.761076	-0.147727
C31	C	0.939709	-0.325502	-0.147780
C32	C	0.939699	-0.238950	-0.147789
C33	C	0.848062	-0.238945	-0.056100
C34	C	0.848067	-0.325490	-0.056089
C35	C	0.893896	-0.368764	-0.101927
C36	C	0.893898	-0.462608	-0.101919
C37	C	0.893896	-0.537406	-0.101909
C38	C	1.032278	-0.000008	-0.096133
C39	C	1.116296	-0.000004	-0.097469
C40	C	0.899661	-0.000015	0.036469
C41	C	0.898317	-0.000015	0.120487
N42	N	0.893908	0.195659	-0.101880
C43	C	0.888122	0.000002	-0.240300
C44	C	0.889467	0.000008	-0.324318
C45	C	0.959061	0.000007	0.645359
C46	C	0.960320	-0.000000	0.566415
C47	C	0.891984	-0.000001	0.517796
C48	C	0.822385	-0.000002	0.548125
C49	C	0.821127	-0.000001	0.627067
C50	C	0.827458	-0.000009	0.229759
C51	C	0.828722	-0.000008	0.150811
C52	C	0.966651	-0.000009	0.169107
C53	C	0.965393	-0.000007	0.248049
C54	C	0.895794	-0.000013	0.278371
C55	C	0.894430	-0.000007	0.363971
C56	C	0.893348	-0.000001	0.432198
H57	H	0.664142	-0.135983	-0.106274
H58	H	0.977026	-0.360725	-0.185105
Cl59	Cl	0.106138	-0.169181	-0.097346
H60	H	0.123638	0.135981	-0.097568
H61	H	0.766746	-0.000008	0.508533
Cl62	Cl	0.733634	-0.000005	0.665188
Cl63	Cl	0.790455	-0.620118	0.001559
Cl64	Cl	0.790464	-0.379882	0.001550
Cl65	Cl	0.790450	-0.184538	0.001530
H66	H	1.016990	-0.000002	0.541730
H67	H	0.520941	0.135974	-0.103917
H68	H	0.266848	0.135983	-0.099850
H69	H	0.520937	-0.135983	-0.103959
Cl70	Cl	0.681649	0.169175	-0.106484
H71	H	0.977036	-0.639293	-0.185066
Cl72	Cl	1.054148	-0.000006	0.130984
Cl73	Cl	0.790482	-0.815453	0.001600
Cl74	Cl	0.997301	-0.184555	-0.205434
H75	H	0.977046	-0.796310	-0.185054
Cl76	Cl	0.284320	-0.169176	-0.100196
Cl77	Cl	1.044973	0.000014	0.706473
Cl78	Cl	1.051304	-0.000004	0.309166
H79	H	0.773072	-0.000011	0.111227
Cl80	Cl	0.739963	-0.000009	0.267867
