data_functionalizedCrystal
_audit_creation_method	'MofGen! by Chris Wilmer'
_symmetry_space_group_name_H-M	'P1'
_symmetry_Int_Tables_number	1
_symmetry_cell_setting	triclinic
loop_
_symmetry_equiv_pos_as_xyz
  x,y,z
_cell_length_a	18.050591
_cell_length_b	29.839131
_cell_length_c	18.050583
_cell_angle_alpha	89.960819
_cell_angle_beta	89.977979
_cell_angle_gamma	90.037426
loop_
_atom_site_label
_atom_site_type_symbol
_atom_site_fract_x
_atom_site_fract_y
_atom_site_fract_z
Zn1	Zn	1.135232	-0.178869	-0.420016
Zn2	Zn	1.635232	0.321131	0.079984
Zn3	Zn	1.135112	-0.254009	-0.295820
Zn4	Zn	1.635112	0.245991	0.204180
Zn5	Zn	1.011049	-0.178889	-0.295828
Zn6	Zn	1.511049	0.321111	0.204172
Zn7	Zn	1.010971	-0.253967	-0.419956
Zn8	Zn	1.510971	0.246033	0.080044
O9	O	1.073091	-0.216434	-0.357905
O10	O	1.573091	0.283566	0.142095
O11	O	1.239141	-0.188846	-0.403564
O12	O	1.739141	0.311154	0.096436
O13	O	1.118637	-0.244070	-0.191896
O14	O	1.618637	0.255930	0.308104
O15	O	1.027606	-0.116019	-0.312330
O16	O	1.527606	0.383981	0.187670
O17	O	1.239053	-0.244051	-0.312317
O18	O	1.739053	0.255949	0.187683
O19	O	1.118842	-0.116004	-0.403571
O20	O	1.618842	0.383996	0.096429
O21	O	1.027489	-0.188879	-0.191902
O22	O	1.527489	0.311121	0.308098
O23	O	0.907114	-0.188839	-0.312271
O24	O	1.407114	0.311161	0.187729
O25	O	1.027472	-0.243980	-0.523888
O26	O	1.527472	0.256020	-0.023888
O27	O	0.907057	-0.243999	-0.403467
O28	O	1.407057	0.256001	0.096533
O29	O	1.118767	-0.188805	-0.523933
O30	O	1.618767	0.311195	-0.023933
O31	O	1.118562	-0.316871	-0.312258
O32	O	1.618562	0.183129	0.187742
O33	O	1.027356	-0.316840	-0.403460
O34	O	1.527356	0.183160	0.096540
C35	C	0.880139	-0.216417	-0.357864
C36	C	1.380139	0.283583	0.142136
C37	C	0.797593	-0.216421	-0.357864
C38	C	1.297593	0.283579	0.142136
C39	C	0.598152	-0.186390	-0.308386
C40	C	1.098152	0.313610	0.191614
C41	C	0.548717	-0.227368	-0.290106
C42	C	1.048717	0.272632	0.209894
C43	C	0.646463	-0.216434	-0.357897
C44	C	1.146463	0.283566	0.142103
C45	C	0.548817	-0.175470	-0.376175
C46	C	1.048817	0.324530	0.123825
C47	C	0.500478	-0.216444	-0.357928
C48	C	1.000478	0.283556	0.142072
C49	C	0.598115	-0.257434	-0.339583
C50	C	1.098115	0.242566	0.160417
C51	C	0.598219	-0.205509	-0.425683
C52	C	1.098219	0.294491	0.074317
C53	C	0.548806	-0.246515	-0.407429
C54	C	1.048806	0.253485	0.092571
C55	C	0.730561	-0.216428	-0.357878
C56	C	1.230561	0.283572	0.142122
C57	C	0.416381	-0.216454	-0.357948
C58	C	0.916381	0.283546	0.142052
C59	C	1.072957	-0.333156	-0.357868
C60	C	1.572957	0.166844	0.142132
C61	C	1.072968	-0.383091	-0.357877
C62	C	1.572968	0.116909	0.142123
C63	C	1.120669	-0.692737	-0.310486
C64	C	1.620669	-0.192737	0.189514
C65	C	1.120760	-0.880410	-0.310514
C66	C	1.620760	-0.380410	0.189486
O67	O	1.161211	-0.904678	-0.270192
O68	O	1.661211	-0.404678	0.229808
N69	N	1.073245	-0.903876	-0.357961
N70	N	1.573245	-0.403876	0.142039
C71	C	1.025707	-0.880420	-0.405407
C72	C	1.525707	-0.380420	0.094593
O73	O	0.985301	-0.904685	-0.445769
O74	O	1.485301	-0.404685	0.054231
C75	C	1.025620	-0.692748	-0.405381
C76	C	1.525620	-0.192748	0.094619
C77	C	1.073133	-0.669285	-0.357926
C78	C	1.573133	-0.169285	0.142074
C79	C	1.168178	-0.669274	-0.263035
C80	C	1.668178	-0.169274	0.236965
C81	C	1.168152	-0.622359	-0.263025
C82	C	1.668152	-0.122359	0.236975
C83	C	1.120616	-0.598906	-0.310466
C84	C	1.620616	-0.098906	0.189534
C85	C	1.073107	-0.622369	-0.357917
C86	C	1.573107	-0.122369	0.142083
C87	C	0.978087	-0.669293	-0.452831
C88	C	1.478087	-0.169293	0.047169
C89	C	0.978070	-0.622372	-0.452822
C90	C	1.478070	-0.122372	0.047178
C91	C	1.025583	-0.598909	-0.405367
C92	C	1.525583	-0.098909	0.094633
C93	C	1.025545	-0.552001	-0.405348
C94	C	1.525545	-0.052001	0.094652
N95	N	1.073060	-0.528536	-0.357902
N96	N	1.573060	-0.028536	0.142098
C97	C	1.120595	-0.551989	-0.310461
C98	C	1.620595	-0.051989	0.189539
C99	C	1.025756	-0.978950	-0.405416
C100	C	1.525756	-0.478950	0.094584
C101	C	1.025776	-1.025868	-0.405422
C102	C	1.525776	-0.525868	0.094578
C103	C	1.120830	-1.025855	-0.310530
C104	C	1.620830	-0.525855	0.189470
C105	C	1.120805	-0.978937	-0.310521
C106	C	1.620805	-0.478937	0.189479
C107	C	1.073271	-0.955485	-0.357970
C108	C	1.573271	-0.455485	0.142030
C109	C	1.120536	-0.453463	-0.310444
C110	C	1.620536	0.046537	0.189556
C111	C	1.120503	-0.406543	-0.310436
C112	C	1.620503	0.093457	0.189564
C113	C	1.025453	-0.406560	-0.405331
C114	C	1.525453	0.093440	0.094669
C115	C	1.025482	-0.453475	-0.405336
C116	C	1.525482	0.046525	0.094664
C117	C	1.073030	-0.476926	-0.357890
C118	C	1.573030	0.023074	0.142110
O119	O	0.985121	-0.527705	-0.445655
O120	O	1.485121	-0.027705	0.054345
O121	O	1.161008	-0.527715	-0.270116
O122	O	1.661008	-0.027715	0.229884
C123	C	1.120695	-0.739653	-0.310495
C124	C	1.620695	-0.239653	0.189505
C125	C	1.073185	-0.763116	-0.357946
C126	C	1.573185	-0.263116	0.142054
C127	C	1.025650	-0.739663	-0.405387
C128	C	1.525650	-0.239663	0.094613
C129	C	1.073206	-0.810033	-0.357951
C130	C	1.573206	-0.310033	0.142049
C131	C	1.120742	-0.833486	-0.310510
C132	C	1.620742	-0.333486	0.189490
C133	C	1.168257	-0.810021	-0.263064
C134	C	1.668257	-0.310021	0.236936
C135	C	1.168230	-0.763105	-0.263054
C136	C	1.668230	-0.263105	0.236946
C137	C	0.978135	-0.763128	-0.452833
C138	C	1.478135	-0.263128	0.047167
C139	C	0.978164	-0.810044	-0.452838
C140	C	1.478164	-0.310044	0.047162
C141	C	1.025700	-0.833496	-0.405397
C142	C	1.525700	-0.333496	0.094603
C143	C	1.266797	-0.216451	-0.357947
C144	C	1.766797	0.283549	0.142053
C145	C	1.349343	-0.216458	-0.357964
C146	C	1.849343	0.283542	0.142036
C147	C	1.073124	-0.216386	-0.551611
C148	C	1.573124	0.283614	-0.051611
C149	C	1.073138	-0.216365	-0.634156
C150	C	1.573138	0.283635	-0.134156
C151	C	1.073246	-0.099255	-0.357958
C152	C	1.573246	0.400745	0.142042
C153	C	1.073312	-0.049321	-0.357981
C154	C	1.573312	0.450679	0.142019
C155	C	1.122834	-0.186347	-0.833632
C156	C	1.622834	0.313653	-0.333632
C157	C	1.055104	-0.175349	-0.883020
C158	C	1.555104	0.324651	-0.383020
C159	C	1.073168	-0.216357	-0.785287
C160	C	1.573168	0.283643	-0.285287
C161	C	1.140925	-0.227327	-0.882980
C162	C	1.640925	0.272673	-0.382980
C163	C	1.073203	-0.216349	-0.931272
C164	C	1.573203	0.283651	-0.431272
C165	C	1.005403	-0.205338	-0.833588
C166	C	1.505403	0.294662	-0.333588
C167	C	1.091269	-0.257336	-0.833544
C168	C	1.591269	0.242664	-0.333544
C169	C	1.023492	-0.246353	-0.882910
C170	C	1.523492	0.253647	-0.382910
C171	C	1.073149	-0.216361	-0.701189
C172	C	1.573149	0.283639	-0.201189
C173	C	1.073214	-0.216346	-1.015369
C174	C	1.573214	0.283654	-0.515369
C175	C	1.073101	-0.216449	-0.164953
C176	C	1.573101	0.283551	0.335047
C177	C	1.073231	-0.216343	-0.082407
C178	C	1.573231	0.283657	0.417593
H179	H	0.527123	-0.140828	-0.391596
H180	H	1.027123	0.359172	0.108404
O181	O	0.523204	-0.276835	-0.457489
O182	O	1.023204	0.223165	0.042511
C183	C	0.549527	-0.265605	-0.528676
C184	C	1.049527	0.234395	-0.028676
H185	H	0.601817	-0.244407	-0.523357
H186	H	1.101817	0.255593	-0.023357
H187	H	0.562751	-0.297557	-0.560631
H188	H	1.062751	0.202443	-0.060631
H189	H	0.505301	-0.245772	-0.559603
H190	H	1.005301	0.254228	-0.059603
O191	O	0.936988	-0.194226	-0.807946
O192	O	1.436988	0.305774	-0.307946
C193	C	0.889156	-0.186442	-0.868326
C194	C	1.389156	0.313558	-0.368326
H195	H	0.911081	-0.204632	-0.919331
H196	H	1.411081	0.295368	-0.419331
H197	H	0.831417	-0.199459	-0.854377
H198	H	1.331417	0.300541	-0.354377
H199	H	0.886290	-0.148941	-0.880093
H200	H	1.386290	0.351059	-0.380093
O201	O	0.973249	-0.276575	-0.908534
O202	O	1.473249	0.223425	-0.408534
C203	C	0.901954	-0.264845	-0.883215
C204	C	1.401954	0.235155	-0.383215
H205	H	0.900588	-0.227573	-0.869462
H206	H	1.400588	0.272427	-0.369462
H207	H	0.859500	-0.272378	-0.928267
H208	H	1.359500	0.227622	-0.428267
H209	H	0.888121	-0.285097	-0.831443
H210	H	1.388121	0.214903	-0.331443
O211	O	1.214380	-0.691982	-0.216875
O212	O	1.714380	-0.191982	0.283125
C213	C	1.256316	-0.661203	-0.175014
C214	C	1.756316	-0.161203	0.324986
H215	H	1.225877	-0.627779	-0.172421
H216	H	1.725877	-0.127779	0.327579
H217	H	1.264279	-0.674774	-0.116506
H218	H	1.764279	-0.174774	0.383494
H219	H	1.312700	-0.656169	-0.202263
H220	H	1.812700	-0.156169	0.297737
H221	H	1.106588	-0.291984	-0.811797
H222	H	1.606588	0.208016	-0.311797
O223	O	0.522619	-0.238382	-0.221787
O224	O	1.022619	0.261618	0.278213
C225	C	0.444518	-0.238596	-0.222969
C226	C	0.944518	0.261404	0.277031
H227	H	0.424420	-0.243899	-0.282184
H228	H	0.924420	0.256101	0.217816
H229	H	0.423074	-0.266893	-0.186295
H230	H	0.923074	0.233107	0.313705
H231	H	0.422907	-0.205171	-0.201384
H232	H	0.922907	0.294829	0.298616
O233	O	1.209208	-0.238457	-0.908951
O234	O	1.709208	0.261543	-0.408951
C235	C	1.204058	-0.277807	-0.951845
C236	C	1.704058	0.222193	-0.451845
H237	H	1.144966	-0.281781	-0.973126
H238	H	1.644966	0.218219	-0.473126
H239	H	1.243777	-0.275440	-1.000812
H240	H	1.743777	0.224560	-0.500812
H241	H	1.219266	-0.308018	-0.916285
H242	H	1.719266	0.191982	-0.416285
H243	H	1.164766	-0.160952	-0.811991
H244	H	1.664766	0.339048	-0.311991
O245	O	0.624044	-0.156061	-0.258487
O246	O	1.124044	0.343939	0.241513
C247	C	0.667073	-0.123546	-0.295469
C248	C	1.167073	0.376454	0.204531
H249	H	0.650282	-0.122203	-0.356305
H250	H	1.150282	0.377797	0.143695
H251	H	0.657537	-0.089369	-0.268949
H252	H	1.157537	0.410631	0.231051
H253	H	0.728192	-0.132772	-0.291056
H254	H	1.228192	0.367228	0.208944
O255	O	1.166731	-0.383821	-0.264314
O256	O	1.666731	0.116179	0.235686
C257	C	1.208679	-0.414586	-0.222433
C258	C	1.708679	0.085414	0.277567
H259	H	1.211247	-0.448013	-0.252865
H260	H	1.711247	0.051987	0.247135
H261	H	1.267191	-0.401001	-0.214568
H262	H	1.767191	0.098999	0.285432
H263	H	1.181522	-0.419621	-0.166004
H264	H	1.681522	0.080379	0.333996
H265	H	1.159536	-1.044958	-0.271902
H266	H	1.659536	-0.544958	0.228098
H267	H	1.206843	-0.603258	-0.224386
H268	H	1.706843	-0.103258	0.275614
H269	H	0.987045	-0.959859	-0.444056
H270	H	1.487045	-0.459859	0.055944
H271	H	1.159256	-0.472550	-0.271810
H272	H	1.659256	0.027450	0.228190
O273	O	1.166925	-0.956196	-0.264324
O274	O	1.666925	-0.456196	0.235676
C275	C	1.150732	-0.967696	-0.190291
C276	C	1.650732	-0.467696	0.309709
H277	H	1.122194	-1.001777	-0.188730
H278	H	1.622194	-0.501777	0.311270
H279	H	1.204351	-0.969291	-0.157045
H280	H	1.704351	-0.469291	0.342955
H281	H	1.112558	-0.941322	-0.165234
H282	H	1.612558	-0.441322	0.334766
O283	O	0.623922	-0.298776	-0.321176
O284	O	1.123922	0.201224	0.178824
C285	C	0.667435	-0.315697	-0.379688
C286	C	1.167435	0.184303	0.120312
H287	H	0.689058	-0.286685	-0.414690
H288	H	1.189058	0.213315	0.085310
H289	H	0.716174	-0.335309	-0.356017
H290	H	1.216174	0.164691	0.143983
H291	H	0.632261	-0.338779	-0.415669
H292	H	1.132261	0.161221	0.084331
O293	O	0.624150	-0.194384	-0.494013
O294	O	1.124150	0.305616	0.005987
C295	C	0.599063	-0.151149	-0.513062
C296	C	1.099063	0.348851	-0.013062
H297	H	0.585176	-0.131732	-0.460497
H298	H	1.085176	0.368268	0.039503
H299	H	0.644307	-0.132742	-0.544998
H300	H	1.144307	0.367258	-0.044998
H301	H	0.547421	-0.154013	-0.549094
H302	H	1.047421	0.345987	-0.049094
H303	H	0.987080	-1.044968	-0.444057
H304	H	1.487080	-0.544968	0.055943
H305	H	0.939393	-0.688388	-0.491470
H306	H	1.439393	-0.188388	0.008530
O307	O	1.036973	-0.133976	-0.908917
O308	O	1.536973	0.366024	-0.408917
C309	C	1.089444	-0.102439	-0.883801
C310	C	1.589444	0.397561	-0.383801
H311	H	1.143493	-0.120310	-0.869932
H312	H	1.643493	0.379690	-0.369932
H313	H	1.099901	-0.076504	-0.929022
H314	H	1.599901	0.423496	-0.429022
H315	H	1.067368	-0.085000	-0.832143
H316	H	1.567368	0.415000	-0.332143
O317	O	0.931931	-0.599640	-0.499018
O318	O	1.431931	-0.099640	0.000982
C319	C	0.948140	-0.611052	-0.573053
C320	C	1.448140	-0.111052	-0.073053
H321	H	0.976706	-0.645100	-0.574623
H322	H	1.476706	-0.145100	-0.074623
H323	H	0.894525	-0.612674	-0.606304
H324	H	1.394525	-0.112674	-0.106304
H325	H	0.986294	-0.584612	-0.598099
H326	H	1.486294	-0.084612	-0.098099
O327	O	0.979406	-0.476251	-0.451534
O328	O	1.479406	0.023749	0.048466
C329	C	0.995572	-0.464728	-0.525563
C330	C	1.495572	0.035272	-0.025563
H331	H	1.054890	-0.451790	-0.529367
H332	H	1.554890	0.048210	-0.029367
H333	H	0.989175	-0.495568	-0.562257
H334	H	1.489175	0.004432	-0.062257
H335	H	0.955726	-0.437510	-0.544928
H336	H	1.455726	0.062490	-0.044928
O337	O	0.979389	-0.383751	-0.451493
O338	O	1.479389	0.116249	0.048507
C339	C	1.021641	-0.356558	-0.499475
C340	C	1.521641	0.143442	0.000525
H341	H	1.080132	-0.370667	-0.504119
H342	H	1.580132	0.129333	-0.004119
H343	H	0.994752	-0.356007	-0.556604
H344	H	1.494752	0.143993	-0.056604
H345	H	1.024203	-0.321011	-0.476502
H346	H	1.524203	0.178989	0.023498
O347	O	1.214458	-0.740386	-0.216936
O348	O	1.714458	-0.240386	0.283064
C349	C	1.256401	-0.771155	-0.175058
C350	C	1.756401	-0.271155	0.324942
H351	H	1.258961	-0.804582	-0.205491
H352	H	1.758961	-0.304582	0.294509
H353	H	1.314915	-0.757574	-0.167192
H354	H	1.814915	-0.257574	0.332808
H355	H	1.229244	-0.776189	-0.118628
H356	H	1.729244	-0.276189	0.381372
O357	O	0.931982	-0.832763	-0.499009
O358	O	1.431982	-0.332763	0.000991
C359	C	0.890012	-0.801997	-0.540864
C360	C	1.390012	-0.301997	-0.040864
H361	H	0.920413	-0.768533	-0.543449
H362	H	1.420413	-0.268533	-0.043449
H363	H	0.882065	-0.815524	-0.599375
H364	H	1.382065	-0.315524	-0.099375
H365	H	0.833621	-0.797055	-0.513614
H366	H	1.333621	-0.297055	-0.013614
O367	O	1.214531	-0.832821	-0.217095
O368	O	1.714531	-0.332821	0.282905
C369	C	1.262463	-0.859912	-0.259455
C370	C	1.762463	-0.359912	0.240545
H371	H	1.266977	-0.845737	-0.317947
H372	H	1.766977	-0.345737	0.182053
H373	H	1.319645	-0.860419	-0.232677
H374	H	1.819645	-0.360419	0.267323
H375	H	1.239529	-0.895485	-0.261993
H376	H	1.739529	-0.395485	0.238007
H377	H	0.939426	-0.744037	-0.491466
H378	H	1.439426	-0.244037	0.008534
