data_functionalizedCrystal
_audit_creation_method	'MofGen! by Chris Wilmer'
_symmetry_space_group_name_H-M	'P1'
_symmetry_Int_Tables_number	1
_symmetry_cell_setting	triclinic
loop_
_symmetry_equiv_pos_as_xyz
  x,y,z
_cell_length_a	14.853566
_cell_length_b	14.853569
_cell_length_c	8.140239
_cell_angle_alpha	89.995310
_cell_angle_beta	90.000126
_cell_angle_gamma	83.634990
loop_
_atom_site_label
_atom_site_type_symbol
_atom_site_fract_x
_atom_site_fract_y
_atom_site_fract_z
O1	O	1.196364	0.117697	-0.136509
O2	O	0.933904	0.131720	-0.136537
O3	O	1.072144	-0.006521	-0.136507
O4	O	1.058124	0.255938	-0.136540
O5	O	1.072137	-0.006523	0.136720
O6	O	0.933897	0.131718	0.136690
O7	O	1.196356	0.117696	0.136718
Zn8	Zn	1.065125	0.124707	0.180085
Zn9	Zn	1.065135	0.124709	-0.179904
O10	O	1.058117	0.255937	0.136688
C11	C	0.900312	0.131084	0.000073
C12	C	0.800228	0.129181	0.000063
C13	C	0.377047	0.121131	-0.148843
C14	C	0.377060	0.121130	0.149040
C15	C	0.471094	0.122917	0.149034
C16	C	0.518109	0.123813	0.000088
C17	C	0.471090	0.122921	-0.148853
C18	C	0.518120	0.123818	0.297973
C19	C	0.612159	0.125607	0.297973
C20	C	0.659177	0.126496	0.149025
C21	C	0.612152	0.125603	0.000078
C22	C	0.659166	0.126499	-0.148868
C23	C	0.612144	0.125599	-0.297817
C24	C	0.518107	0.123810	-0.297801
C25	C	0.753213	0.128285	0.149009
C26	C	0.753209	0.128289	-0.148878
C27	C	1.071505	-0.040111	0.000107
C28	C	1.069600	-0.140194	0.000109
C29	C	0.986590	-0.176570	0.000103
C30	C	1.150822	-0.197861	0.000102
C31	C	1.149036	-0.291895	0.000095
C32	C	1.066025	-0.328271	0.000089
C33	C	0.984800	-0.270613	0.000091
C34	C	1.230259	-0.349560	0.000077
C35	C	1.228475	-0.443600	0.000068
C36	C	1.145463	-0.479978	0.000074
C37	C	1.064236	-0.422313	0.000077
C38	C	0.981225	-0.458690	0.000071
C39	C	0.899996	-0.401027	0.000086
C40	C	0.901788	-0.306991	0.000097
C41	C	1.143671	-0.574014	0.000064
C42	C	0.979436	-0.552732	0.000059
C43	C	1.229949	0.118332	0.000104
C44	C	1.330033	0.120235	0.000103
C45	C	1.058756	0.289526	0.000070
C46	C	1.060660	0.389610	0.000058
N47	N	1.065125	0.124705	0.425767
N48	N	1.065143	0.124704	-0.425586
H49	H	0.791482	0.129015	-0.270170
H50	H	0.650435	0.126335	-0.419089
H51	H	0.650437	0.126337	0.419257
H52	H	1.218406	-0.168237	0.000140
C53	C	0.888115	-0.592737	0.000053
N54	N	0.819332	-0.622869	0.000046
H55	H	1.209806	-0.620959	0.000035
H56	H	1.297842	-0.319935	0.000183
C57	C	0.808687	-0.441053	0.000086
N58	N	0.739915	-0.471205	0.000092
C59	C	0.812445	-0.243556	0.000091
N60	N	0.745153	-0.195773	0.000077
H61	H	1.294617	-0.490542	0.000059
H62	H	0.479813	0.123077	-0.419067
C63	C	0.325323	0.120141	-0.312679
N64	N	0.286362	0.119396	-0.436082
H65	H	0.791494	0.129026	0.270281
C66	C	0.325341	0.120148	0.312871
N67	N	0.286382	0.119406	0.436276
H68	H	0.920455	-0.129618	0.000122
H69	H	0.479833	0.123095	0.419237
