data_functionalizedCrystal
_audit_creation_method	'MofGen! by Chris Wilmer'
_symmetry_space_group_name_H-M	'P1'
_symmetry_Int_Tables_number	1
_symmetry_cell_setting	triclinic
loop_
_symmetry_equiv_pos_as_xyz
  x,y,z
_cell_length_a	16.120530
_cell_length_b	17.640280
_cell_length_c	17.640968
_cell_angle_alpha	114.317439
_cell_angle_beta	75.368885
_cell_angle_gamma	104.611321
loop_
_atom_site_label
_atom_site_type_symbol
_atom_site_fract_x
_atom_site_fract_y
_atom_site_fract_z
Zn1	Zn	1.434197	0.291308	-0.456998
Zn2	Zn	1.934197	0.791308	0.043002
Zn3	Zn	1.434128	0.456974	-0.291356
Zn4	Zn	1.934128	0.956974	0.208644
Zn5	Zn	1.268513	0.312558	-0.312580
Zn6	Zn	1.768513	0.812558	0.187420
Zn7	Zn	1.316194	0.424346	-0.424424
Zn8	Zn	1.816194	0.924346	0.075576
O9	O	1.363258	0.371297	-0.371339
O10	O	1.863258	0.871297	0.128661
O11	O	1.552883	0.318046	-0.439776
O12	O	2.052883	0.818046	0.060224
O13	O	1.392175	0.460365	-0.178043
O14	O	1.892175	0.960365	0.321957
O15	O	1.270566	0.193623	-0.354251
O16	O	1.770566	0.693623	0.145749
O17	O	1.552832	0.439760	-0.318079
O18	O	2.052832	0.939760	0.181921
O19	O	1.392293	0.178011	-0.460355
O20	O	1.892293	0.678011	0.039645
O21	O	1.270499	0.354263	-0.193635
O22	O	1.770499	0.854263	0.306365
O23	O	1.156143	0.322625	-0.322666
O24	O	1.656143	0.822625	0.177334
O25	O	1.351831	0.384151	-0.544874
O26	O	1.851831	0.884151	-0.044874
O27	O	1.191173	0.404756	-0.404837
O28	O	1.691173	0.904756	0.095163
O29	O	1.438527	0.286408	-0.568806
O30	O	1.938527	0.786408	-0.068806
O31	O	1.438409	0.568762	-0.286494
O32	O	1.938409	1.068762	0.213506
O33	O	1.351763	0.544790	-0.384258
O34	O	1.851763	1.044790	0.115742
C35	C	1.142882	0.362456	-0.362520
C36	C	1.642882	0.862456	0.137480
C37	C	1.048611	0.358690	-0.358763
C38	C	1.548611	0.858690	0.141237
C39	C	1.400505	0.329270	-0.587793
C40	C	1.900505	0.829270	-0.087793
C41	C	1.416378	0.311360	-0.680032
C42	C	1.916378	0.811360	-0.180032
C43	C	1.400279	0.586881	-0.329557
C44	C	1.900279	1.086881	0.170443
C45	C	1.416199	0.679106	-0.311713
C46	C	1.916199	1.179106	0.188287
C47	C	0.876016	0.351794	-0.351914
C48	C	1.376016	0.851794	0.148086
C49	C	0.851361	0.390848	-0.390813
C50	C	1.351361	0.890848	0.109187
C51	C	0.755324	0.387011	-0.387003
C52	C	1.255324	0.887011	0.112997
C53	C	0.972062	0.355630	-0.355724
C54	C	1.472062	0.855630	0.144276
C55	C	1.584495	0.380172	-0.380194
C56	C	2.084495	0.880172	0.119806
C57	C	1.678773	0.383954	-0.383967
C58	C	2.178773	0.883954	0.116033
C59	C	1.326119	0.154868	-0.413304
C60	C	1.826119	0.654868	0.086696
C61	C	1.310292	0.062639	-0.431187
C62	C	1.810292	0.562639	0.068813
C63	C	1.242715	0.920210	-0.507212
C64	C	1.742715	1.420210	-0.007212
C65	C	1.257671	1.006875	-0.490419
C66	C	1.757671	1.506875	0.009581
C67	C	1.347981	1.031753	-0.388727
C68	C	1.847981	1.531753	0.111273
C69	C	1.333036	0.945088	-0.405515
C70	C	1.833036	1.445088	0.094485
C71	C	1.280401	0.889322	-0.464758
C72	C	1.780401	1.389322	0.035242
C73	C	1.370722	0.914200	-0.363060
C74	C	1.870722	1.414200	0.136940
C75	C	1.355774	0.827543	-0.379844
C76	C	1.855774	1.327543	0.120156
C77	C	1.303140	0.771773	-0.439082
C78	C	1.803140	1.271773	0.060918
C79	C	1.265453	0.802665	-0.481541
C80	C	1.765453	1.302665	0.018459
C81	C	1.423352	0.969967	-0.303814
C82	C	1.923352	1.469967	0.196186
C83	C	1.461038	0.939080	-0.261359
C84	C	1.961038	1.439080	0.238641
C85	C	1.446095	0.852421	-0.278146
C86	C	1.946095	1.352421	0.221854
C87	C	1.393461	0.796651	-0.337385
C88	C	1.893461	1.296651	0.162615
C89	C	1.483782	0.821529	-0.235687
C90	C	1.983782	1.321529	0.264313
C91	C	1.468834	0.734871	-0.252471
C92	C	1.968834	1.234871	0.247529
C93	C	1.378513	0.709994	-0.354168
C94	C	1.878513	1.209994	0.145832
C95	C	1.242923	0.506914	-0.921095
C96	C	1.742923	1.006914	-0.421095
C97	C	1.257854	0.490075	-1.007771
C98	C	1.757854	0.990075	-0.507771
C99	C	1.348123	0.388305	-1.032679
C100	C	1.848123	0.888305	-0.532679
C101	C	1.333197	0.405132	-0.946004
C102	C	1.833197	0.905132	-0.446004
C103	C	1.280597	0.464438	-0.890218
C104	C	1.780597	0.964438	-0.390218
C105	C	1.370870	0.362655	-0.915127
C106	C	1.870870	0.862655	-0.415127
C107	C	1.355948	0.379484	-0.828459
C108	C	1.855948	0.879484	-0.328459
C109	C	1.303353	0.438790	-0.772668
C110	C	1.803353	0.938790	-0.272668
C111	C	1.265675	0.481267	-0.803550
C112	C	1.765675	0.981267	-0.303550
C113	C	1.423475	0.303354	-0.970913
C114	C	1.923475	0.803354	-0.470913
C115	C	1.461149	0.260878	-0.940036
C116	C	1.961149	0.760878	-0.440036
C117	C	1.446222	0.277702	-0.853368
C118	C	1.946222	0.777702	-0.353368
C119	C	1.393627	0.337007	-0.797577
C120	C	1.893627	0.837007	-0.297577
C121	C	1.483900	0.235225	-0.822485
C122	C	1.983900	0.735225	-0.322485
C123	C	1.468978	0.252054	-0.735818
C124	C	1.968978	0.752054	-0.235818
C125	C	1.378704	0.353836	-0.710909
C126	C	1.878704	0.853836	-0.210909
C127	C	1.326194	0.413102	-0.155742
C128	C	1.826194	0.913102	0.344258
C129	C	1.310445	0.430784	-0.063555
C130	C	1.810445	0.930784	0.436445
H131	H	0.902379	0.427164	-0.426979
H132	H	1.402379	0.927164	0.073021
Br133	Br	1.194032	0.726974	-0.561954
Br134	Br	1.694032	1.226974	-0.061954
H135	H	1.222818	0.529539	-0.758129
H136	H	1.722818	1.029539	-0.258129
Br137	Br	0.790987	0.291267	-0.291641
Br138	Br	1.290987	0.791267	0.208359
H139	H	1.335659	0.664586	-0.402416
H140	H	1.835659	1.164586	0.097584
Br141	Br	1.283102	0.654133	-0.462081
Br142	Br	1.783102	1.154133	0.037919
Br143	Br	1.171294	0.844519	-0.587625
Br144	Br	1.671294	1.344519	-0.087625
Br145	Br	1.206504	1.048792	-0.548030
Br146	Br	1.706504	1.548792	-0.048030
Br147	Br	1.443733	0.280519	-1.088535
Br148	Br	1.943733	0.780519	-0.588535
Br149	Br	1.532537	0.180398	-1.015751
Br150	Br	2.032537	0.680398	-0.515751
H151	H	1.390834	1.077168	-0.340489
H152	H	1.890834	1.577168	0.159511
Br153	Br	1.171524	0.587392	-0.845380
Br154	Br	1.671524	1.087392	-0.345380
Br155	Br	1.206718	0.547728	-1.049672
Br156	Br	1.706718	1.047728	-0.549672
H157	H	1.499521	0.709724	-0.217899
H158	H	1.999521	1.209724	0.282101
H159	H	1.435523	1.040528	-0.290153
H160	H	1.935523	1.540528	0.209847
H161	H	1.503890	0.984496	-0.213121
H162	H	2.003890	1.484496	0.286879
Br163	Br	1.555202	0.897220	-0.155282
Br164	Br	2.055202	1.397220	0.344718
Br165	Br	1.307306	0.434314	-0.635193
Br166	Br	1.807306	0.934314	-0.135193
Br167	Br	1.555298	0.154754	-0.898201
Br168	Br	2.055298	0.654754	-0.398201
Br169	Br	1.520113	0.194414	-0.693907
Br170	Br	2.020113	0.694414	-0.193907
H171	H	1.291208	0.452494	-0.702098
H172	H	1.791208	0.952494	-0.202098
H173	H	1.390953	0.340020	-1.078110
H174	H	1.890953	0.840020	-0.578110
