data_functionalizedCrystal
_audit_creation_method	'MofGen! by Chris Wilmer'
_symmetry_space_group_name_H-M	'P1'
_symmetry_Int_Tables_number	1
_symmetry_cell_setting	triclinic
loop_
_symmetry_equiv_pos_as_xyz
  x,y,z
_cell_length_a	9.065218
_cell_length_b	14.044190
_cell_length_c	8.140239
_cell_angle_alpha	89.991557
_cell_angle_beta	89.997198
_cell_angle_gamma	89.103831
loop_
_atom_site_label
_atom_site_type_symbol
_atom_site_fract_x
_atom_site_fract_y
_atom_site_fract_z
O1	O	1.975823	0.139141	-0.136639
O2	O	2.309157	0.472474	0.196694
O3	O	2.642490	0.805808	0.530027
O4	O	1.547804	0.150554	-0.136644
O5	O	1.881137	0.483887	0.196690
O6	O	2.214470	0.817221	0.530023
O7	O	1.755383	0.006808	-0.136609
O8	O	2.088717	0.340141	0.196724
O9	O	2.422050	0.673474	0.530057
O10	O	1.768243	0.282888	-0.136674
O11	O	2.101577	0.616221	0.196660
O12	O	2.434910	0.949554	0.529993
O13	O	1.755371	0.006806	0.136618
O14	O	2.088704	0.340139	0.469951
O15	O	2.422037	0.673473	0.803285
O16	O	1.547791	0.150552	0.136584
O17	O	1.881124	0.483886	0.469917
O18	O	2.214458	0.817219	0.803250
O19	O	1.975811	0.139139	0.136588
O20	O	2.309144	0.472473	0.469921
O21	O	2.642477	0.805806	0.803254
Zn22	Zn	1.761799	0.144846	0.179966
Zn23	Zn	2.095132	0.478179	0.513300
Zn24	Zn	2.428465	0.811512	0.846633
Zn25	Zn	1.761815	0.144848	-0.180022
Zn26	Zn	2.095149	0.478181	0.153311
Zn27	Zn	2.428482	0.811515	0.486644
O28	O	1.768231	0.282886	0.136553
O29	O	2.101564	0.616219	0.469887
O30	O	2.434897	0.949553	0.803220
C31	C	1.492689	0.149456	-0.000030
C32	C	1.826022	0.482790	0.333303
C33	C	2.159356	0.816123	0.666637
C34	C	1.328483	0.146177	-0.000030
C35	C	1.661816	0.479510	0.333303
C36	C	1.995149	0.812843	0.666636
C37	C	1.749751	-0.028556	0.000009
C38	C	2.083085	0.304777	0.333342
C39	C	2.416418	0.638111	0.666676
C40	C	1.732970	-0.133926	0.000023
C41	C	2.066304	0.199407	0.333357
C42	C	2.399637	0.532741	0.666690
C43	C	1.821306	-0.383454	-0.000040
C44	C	2.154640	-0.050121	0.333293
C45	C	2.487973	0.283213	0.666626
C46	C	1.702315	-0.326847	-0.000030
C47	C	2.035648	0.006487	0.333303
C48	C	2.368981	0.339820	0.666637
C49	C	1.719375	-0.219496	-0.000000
C50	C	2.052709	0.113837	0.333333
C51	C	2.386042	0.447171	0.666666
C52	C	1.804248	-0.490815	-0.000070
C53	C	2.137581	-0.157482	0.333263
C54	C	2.470914	0.175852	0.666597
C55	C	2.030925	0.140237	-0.000029
C56	C	2.364258	0.473570	0.333304
C57	C	2.697592	0.806904	0.666637
C58	C	2.195132	0.143517	-0.000040
C59	C	2.528465	0.476850	0.333293
C60	C	2.861798	0.810183	0.666627
C61	C	1.773863	0.318250	-0.000069
C62	C	2.107196	0.651583	0.333265
C63	C	2.440530	0.984916	0.666598
C64	C	1.790644	0.423620	-0.000094
C65	C	2.123977	0.756953	0.333240
C66	C	2.457311	1.090286	0.666573
N67	N	1.761798	0.144844	0.425649
N68	N	2.095131	0.478177	0.758982
N69	N	2.428465	0.811510	1.092316
N70	N	1.761827	0.144843	-0.425705
N71	N	2.095160	0.478176	-0.092371
N72	N	2.428494	0.811509	0.240962
H73	H	1.587629	-0.359007	-0.000041
H74	H	1.920963	-0.025673	0.333293
H75	H	2.254296	0.307660	0.666626
H76	H	1.935982	-0.351296	-0.000022
H77	H	2.269316	-0.017963	0.333311
H78	H	2.602649	0.315371	0.666644
