data_functionalizedCrystal
_audit_creation_method	'MofGen! by Chris Wilmer'
_symmetry_space_group_name_H-M	'P1'
_symmetry_Int_Tables_number	1
_symmetry_cell_setting	triclinic
loop_
_symmetry_equiv_pos_as_xyz
  x,y,z
_cell_length_a	6.817900
_cell_length_b	16.418049
_cell_length_c	14.858572
_cell_angle_alpha	95.075873
_cell_angle_beta	104.524003
_cell_angle_gamma	103.389670
loop_
_atom_site_label
_atom_site_type_symbol
_atom_site_fract_x
_atom_site_fract_y
_atom_site_fract_z
V1	V	-4.037872	-0.116414	-0.290289
V2	V	-3.537872	0.383586	0.209711
O3	O	-4.025632	0.005052	-0.284426
O4	O	-3.525632	0.505052	0.215574
O5	O	-3.988873	-0.230307	-0.288628
O6	O	-3.488873	0.269693	0.211372
O7	O	-3.994518	-0.114861	-0.416746
O8	O	-3.494518	0.385139	0.083254
O9	O	-4.019948	-0.111194	-0.155421
O10	O	-3.519948	0.388806	0.344579
V11	V	-4.520924	-0.101857	-0.274118
V12	V	-4.020924	0.398143	0.225882
O13	O	-4.300165	-0.148345	-0.325761
O14	O	-3.800165	0.351655	0.174239
O15	O	-4.708829	-0.069925	-0.238647
O16	O	-4.208829	0.430075	0.261353
O17	O	-4.346717	0.012037	-0.275780
O18	O	-3.846717	0.512037	0.224220
O19	O	-4.650562	-0.223322	-0.279981
O20	O	-4.150562	0.276678	0.220019
O21	O	-4.656246	-0.107077	-0.408987
O22	O	-4.156246	0.392923	0.091013
O23	O	-4.341072	-0.103410	-0.147661
O24	O	-3.841072	0.396590	0.352339
C25	C	-3.833565	-0.258065	-0.284132
C26	C	-3.333565	0.241935	0.215868
C27	C	-3.874823	-0.351175	-0.283617
C28	C	-3.374823	0.148825	0.216383
C29	C	-3.840765	-0.110800	-0.447559
C30	C	-3.340765	0.389200	0.052441
C31	C	-3.886598	-0.110285	-0.550940
C32	C	-3.386598	0.389715	-0.050940
C33	C	-4.151994	-0.569671	-0.287100
C34	C	-3.651994	-0.069671	0.212900
C35	C	-4.190749	-0.657160	-0.286624
C36	C	-3.690749	-0.157160	0.213376
C37	C	-3.826160	-0.648599	-0.277313
C38	C	-3.326160	-0.148599	0.222687
C39	C	-3.787412	-0.561113	-0.277796
C40	C	-3.287412	-0.061113	0.222204
C41	C	-3.950333	-0.521651	-0.282685
C42	C	-3.450333	-0.021651	0.217315
C43	C	-4.027837	-0.696625	-0.281726
C44	C	-3.527837	-0.196625	0.218274
C45	C	-4.069856	-0.791484	-0.281210
C46	C	-3.569856	-0.291484	0.218790
C47	C	-3.908314	-0.426786	-0.283203
C48	C	-3.408314	0.073214	0.216797
C49	C	-4.054347	-0.108399	-0.929503
C50	C	-3.554347	0.391601	-0.429503
C51	C	-4.007666	-0.108924	-0.824175
C52	C	-3.507666	0.391076	-0.324175
C53	C	-3.970474	-0.109343	-0.740225
C54	C	-3.470474	0.390657	-0.240225
C55	C	-3.923790	-0.109866	-0.634890
C56	C	-3.423790	0.390134	-0.134890
C57	C	-4.165367	0.039789	-0.280273
C58	C	-3.665367	0.539789	0.219727
C59	C	-4.103347	0.132900	-0.280794
C60	C	-3.603347	0.632900	0.219206
C61	C	-4.158167	-0.107473	-0.116844
C62	C	-3.658167	0.392527	0.383156
C63	C	-4.091573	-0.107985	-0.013461
C64	C	-3.591573	0.392015	0.486539
H65	H	-4.284658	-0.537544	-0.291080
H66	H	-3.784658	-0.037544	0.208920
H67	H	-3.693520	-0.680739	-0.273331
H68	H	-3.193520	-0.180739	0.226669
H69	H	-4.354959	-0.696255	-0.290222
H70	H	-3.854959	-0.196255	0.209778
Cl71	Cl	-3.533877	-0.500740	-0.272251
Cl72	Cl	-3.033877	-0.000740	0.227749
