data_functionalizedCrystal
_audit_creation_method	'MofGen! by Chris Wilmer'
_symmetry_space_group_name_H-M	'P1'
_symmetry_Int_Tables_number	1
_symmetry_cell_setting	triclinic
loop_
_symmetry_equiv_pos_as_xyz
  x,y,z
_cell_length_a	13.635800
_cell_length_b	17.334929
_cell_length_c	17.982968
_cell_angle_alpha	78.692570
_cell_angle_beta	102.451960
_cell_angle_gamma	103.532036
loop_
_atom_site_label
_atom_site_type_symbol
_atom_site_fract_x
_atom_site_fract_y
_atom_site_fract_z
V1	V	1.941804	-0.110510	0.237471
O2	O	2.004115	0.004546	0.233030
O3	O	1.853429	-0.218388	0.235772
O4	O	1.915869	-0.109146	0.341075
O5	O	1.941243	-0.105452	0.126997
V6	V	2.192158	-0.096709	0.224267
O7	O	2.053584	-0.140785	0.266436
O8	O	2.305477	-0.066433	0.195302
O9	O	2.168930	0.011169	0.225967
O10	O	2.188545	-0.211764	0.228709
O11	O	2.251418	-0.101766	0.334742
O12	O	2.106490	-0.098073	0.120663
V13	V	2.441804	-0.110510	0.237471
O14	O	2.504115	0.004546	0.233030
O15	O	2.353429	-0.218388	0.235772
O16	O	2.415869	-0.109146	0.341075
O17	O	2.441243	-0.105452	0.126997
V18	V	2.692158	-0.096709	0.224267
O19	O	2.553584	-0.140785	0.266436
O20	O	2.805477	-0.066433	0.195302
O21	O	2.668930	0.011169	0.225967
O22	O	2.688545	-0.211764	0.228709
O23	O	2.751418	-0.101766	0.334742
O24	O	2.606490	-0.098073	0.120663
C25	C	2.260373	-0.244675	0.232006
C26	C	2.228748	-0.332869	0.231307
C27	C	2.302440	-0.378355	0.234776
C28	C	2.272720	-0.461222	0.234123
C29	C	2.169307	-0.498601	0.229996
C30	C	2.095611	-0.453110	0.226529
C31	C	2.125332	-0.370244	0.227187
C32	C	2.070922	-0.745998	0.227626
C33	C	2.041205	-0.828869	0.226966
C34	C	2.218318	-0.836976	0.234561
C35	C	2.248031	-0.754108	0.235214
C36	C	2.174333	-0.708624	0.231751
N37	N	2.138926	-0.583305	0.229327
N38	N	2.204716	-0.623923	0.232426
C39	C	1.760373	-0.244675	0.232006
C40	C	1.728748	-0.332869	0.231307
C41	C	1.840022	-0.105326	0.366330
C42	C	1.859035	-0.104924	0.451027
C43	C	2.093654	0.037452	0.229730
C44	C	2.114897	0.125645	0.230435
C45	C	2.014006	-0.101896	0.095404
C46	C	1.984615	-0.102293	0.010707
C47	C	2.340022	-0.105326	0.366330
C48	C	2.359035	-0.104924	0.451027
C49	C	1.956562	-0.108711	0.494696
C50	C	1.974421	-0.108333	0.574277
C51	C	1.894749	-0.104174	0.610188
C52	C	1.797214	-0.100384	0.566513
C53	C	1.779359	-0.100756	0.486932
C54	C	1.869222	-0.098882	0.887451
C55	C	1.887085	-0.098512	0.967037
C56	C	2.064284	-0.106458	0.974795
C57	C	2.046428	-0.106830	0.895215
C58	C	1.948897	-0.103037	0.851546
C59	C	1.929534	-0.103445	0.765255
C60	C	1.914109	-0.103771	0.696478
C61	C	2.593654	0.037452	0.229730
C62	C	2.614897	0.125645	0.230435
C63	C	2.514006	-0.101896	0.095404
C64	C	2.484615	-0.102293	0.010707
C65	C	1.802456	-0.378342	0.234782
C66	C	1.772757	-0.461212	0.234137
C67	C	1.669348	-0.498605	0.230010
C68	C	1.595636	-0.453126	0.226537
C69	C	1.625337	-0.370259	0.227188
C70	C	2.456572	-0.108703	0.494682
C71	C	2.474453	-0.108315	0.574262
C72	C	2.394795	-0.104154	0.610186
C73	C	2.297251	-0.100372	0.566525
C74	C	2.279372	-0.100754	0.486946
C75	C	2.713683	0.171118	0.226961
C76	C	2.733654	0.253987	0.227610
C77	C	2.654839	0.291380	0.231738
C78	C	2.556044	0.245901	0.235210
C79	C	2.536073	0.163035	0.234555
C80	C	2.382048	-0.106446	-0.025198
C81	C	2.354420	-0.106810	-0.104781
C82	C	2.429360	-0.103027	-0.148456
C83	C	2.531936	-0.098873	-0.112547
C84	C	2.559564	-0.098503	-0.032966
H85	H	2.386647	-0.347926	0.238129
H86	H	2.011408	-0.483551	0.223174
O87	O	1.809676	-0.094607	1.001978
C88	C	1.792472	-0.163206	1.058076
H89	H	1.821813	-0.213847	1.043482
H90	H	1.706846	-0.182862	1.059002
H91	H	1.834844	-0.148382	1.117106
O92	O	2.659212	-0.094339	0.001923
C93	C	2.693520	-0.024840	0.037459
H94	H	2.643923	0.021075	0.008500
H95	H	2.776698	0.001847	0.031469
H96	H	2.687683	-0.041242	0.101142
H97	H	2.199946	-0.097679	0.451408
H98	H	2.671114	0.358856	0.232270
H99	H	2.065323	-0.333211	0.224366
O100	O	2.402331	-0.103436	-0.225747
C101	C	2.295732	-0.107895	-0.248066
H102	H	2.256652	-0.135168	-0.196240
H103	H	2.264558	-0.147104	-0.295299
H104	H	2.279787	-0.045020	-0.270708
H105	H	2.814103	0.291005	0.224785
O106	O	2.790259	0.134747	0.223084
C107	C	2.804232	0.076071	0.288748
H108	H	2.773983	0.091071	0.337436
H109	H	2.889333	0.075036	0.307619
H110	H	2.760680	0.014660	0.274286
H111	H	2.021441	-0.112103	0.465464
H112	H	2.111306	-0.110221	0.865981
H113	H	1.789800	-0.095821	0.851909
H114	H	1.511439	-0.483584	0.223178
H115	H	2.491879	0.276360	0.238570
H116	H	1.732347	-0.096993	0.595757
O117	O	2.069212	-0.112040	0.616586
C118	C	2.135710	-0.115769	0.567822
H119	H	2.088877	-0.140130	0.513724
H120	H	2.190384	-0.157141	0.599300
H121	H	2.181640	-0.053053	0.551011
H122	H	1.565308	-0.333239	0.224354
O123	O	2.604590	-0.095243	-0.155086
C124	C	2.558199	-0.096445	-0.233025
H125	H	2.473394	-0.125145	-0.236786
H126	H	2.597079	-0.132774	-0.259988
H127	H	2.566612	-0.032390	-0.265324
H128	H	2.455633	0.126015	0.237390
H129	H	2.321014	-0.109525	0.010353
H130	H	1.645178	-0.566082	0.229481
H131	H	1.699950	-0.097653	0.451375
O132	O	2.254725	-0.111010	-0.139575
C133	C	2.194528	-0.182398	-0.107439
H134	H	2.245003	-0.228225	-0.080667
H135	H	2.131711	-0.207642	-0.154537
H136	H	2.158194	-0.169054	-0.061127
H137	H	2.010908	-0.708974	0.224802
O138	O	2.158952	-0.110240	1.017315
C139	C	2.152340	-0.179334	1.073855
H140	H	2.070672	-0.198849	1.085835
H141	H	2.207398	-0.165222	1.129146
H142	H	2.173605	-0.229800	1.052305
H143	H	2.332731	-0.498254	0.236949
O144	O	2.348454	-0.717748	0.239092
C145	C	2.359985	-0.659072	0.173427
H146	H	2.293114	-0.674069	0.124743
H147	H	2.434963	-0.658042	0.154547
H148	H	2.361204	-0.597660	0.187891
H149	H	1.886661	-0.347907	0.238137
H150	H	2.278315	-0.874018	0.237380
H151	H	1.956995	-0.859303	0.223623
H152	H	2.521445	-0.112094	0.465443
H153	H	1.832790	-0.498230	0.236963
H154	H	2.553883	-0.111398	0.609801
H155	H	2.232399	-0.096985	0.595787
H156	H	2.409367	-0.103844	0.674986
