data_functionalizedCrystal
_audit_creation_method	'MofGen! by Chris Wilmer'
_symmetry_space_group_name_H-M	'P1'
_symmetry_Int_Tables_number	1
_symmetry_cell_setting	triclinic
loop_
_symmetry_equiv_pos_as_xyz
  x,y,z
_cell_length_a	10.654553
_cell_length_b	9.730223
_cell_length_c	10.654550
_cell_angle_alpha	89.993028
_cell_angle_beta	95.514460
_cell_angle_gamma	90.001126
loop_
_atom_site_label
_atom_site_type_symbol
_atom_site_fract_x
_atom_site_fract_y
_atom_site_fract_z
O1	O	1.667832	0.114306	-0.176422
O2	O	1.302354	0.114306	-0.193224
O3	O	1.493496	0.114296	-0.002083
O4	O	1.476689	0.114316	-0.367562
O5	O	1.493494	-0.114284	-0.002069
O6	O	1.302352	-0.114274	-0.193209
O7	O	1.667830	-0.114274	-0.176407
Zn8	Zn	1.485090	-0.150566	-0.184806
Zn9	Zn	1.485093	0.150598	-0.184825
O10	O	1.476688	-0.114264	-0.367547
C11	C	1.255555	0.000016	-0.191982
C12	C	1.116112	0.000015	-0.188288
C13	C	0.919570	-0.124574	-0.183067
C14	C	1.050591	-0.124582	-0.186544
C15	C	1.050603	0.124628	-0.186567
C16	C	0.919584	0.124635	-0.183099
C17	C	0.919565	-0.268454	-0.183048
C18	C	1.050586	-0.268462	-0.186525
N19	N	1.485098	-0.356102	-0.184792
C20	C	1.714628	0.000020	-0.177649
C21	C	1.854072	0.000029	-0.181342
C22	C	1.477922	0.000029	-0.414352
C23	C	1.481614	0.000037	-0.553796
N24	N	1.485095	0.356134	-0.184829
C25	C	1.400294	0.571984	-0.269260
C26	C	1.400295	0.428101	-0.269282
C27	C	1.569908	0.428058	-0.100357
C28	C	1.569912	0.571939	-0.100342
C29	C	1.302366	0.572008	-0.366784
C30	C	1.302367	0.428125	-0.366806
C31	C	1.369073	0.000024	-0.633280
C32	C	1.372550	0.000014	-0.764301
C33	C	1.601119	0.000025	-0.736340
C34	C	1.597641	0.000044	-0.605322
C35	C	1.237110	0.000011	-0.649424
C36	C	1.240587	0.000002	-0.780445
C37	C	1.492261	0.000006	0.044722
C38	C	1.488569	0.000007	0.184165
H39	H	0.873281	-0.323695	-0.269834
C40	C	0.879605	-0.328785	-0.059309
N41	N	0.849507	-0.374230	0.033890
H42	H	1.185494	0.095669	-0.620090
H43	H	1.638976	0.630490	-0.031572
H44	H	1.096870	-0.323703	-0.099724
H45	H	1.080150	-0.313104	-0.278124
H46	H	1.332707	0.383525	-0.458103
C47	C	1.186714	0.133323	-0.842147
N48	N	1.146141	0.233740	-0.888621
H49	H	1.638962	0.369454	-0.031601
C50	C	0.847539	0.261708	-0.181207
N51	N	0.793275	0.364957	-0.179779
H52	H	1.695584	0.000055	-0.778309
C53	C	1.331095	0.624797	-0.497264
N54	N	1.352737	0.664557	-0.595539
C55	C	1.173430	-0.129242	-0.836831
N56	N	1.122855	-0.226587	-0.879300
C57	C	1.172068	0.375355	-0.337482
N58	N	1.073931	0.335610	-0.315390
C59	C	1.122680	0.261687	-0.188490
N60	N	1.176967	0.364923	-0.189935
H61	H	1.211258	0.616627	-0.336013
C62	C	1.180331	-0.133309	-0.601254
N63	N	1.137565	-0.233727	-0.564972
C64	C	1.721445	0.000063	-0.517892
N65	N	1.814700	0.000072	-0.452040
