data_functionalizedCrystal
_audit_creation_method	'MofGen! by Chris Wilmer'
_symmetry_space_group_name_H-M	'P1'
_symmetry_Int_Tables_number	1
_symmetry_cell_setting	triclinic
loop_
_symmetry_equiv_pos_as_xyz
  x,y,z
_cell_length_a	15.995292
_cell_length_b	16.109301
_cell_length_c	15.186229
_cell_angle_alpha	89.999362
_cell_angle_beta	90.006747
_cell_angle_gamma	96.534951
loop_
_atom_site_label
_atom_site_type_symbol
_atom_site_fract_x
_atom_site_fract_y
_atom_site_fract_z
O1	O	-0.107627	1.103137	-0.073179
O2	O	-0.121021	0.861076	-0.073194
O3	O	0.007569	0.988749	-0.073173
O4	O	-0.236217	0.975465	-0.073199
O5	O	0.007571	0.988740	0.073284
O6	O	-0.121019	0.861068	0.073264
O7	O	-0.107625	1.103129	0.073278
Zn8	Zn	-0.114322	0.982097	0.096524
Zn9	Zn	-0.114324	0.982108	-0.096439
O10	O	-0.236215	0.975456	0.073258
C11	C	-0.120478	0.830097	0.000033
C12	C	-0.118851	0.737802	0.000028
C13	C	-0.191371	0.515534	0.000031
C14	C	-0.189836	0.428813	0.000037
C15	C	-0.037269	0.448678	0.000049
C16	C	-0.038805	0.535397	0.000050
C17	C	-0.115858	0.568822	0.000036
C18	C	-0.112788	0.395383	0.000041
C19	C	-0.111123	0.301357	0.000048
C20	C	-0.117524	0.662854	0.000031
C21	C	-0.267411	0.976001	0.000026
C22	C	-0.360364	0.977622	0.000017
C23	C	-0.698101	0.983581	0.000045
C24	C	-0.674813	0.891430	0.000364
C25	C	-0.578138	0.889679	0.000025
C26	C	-0.530546	0.980624	0.000032
C27	C	-0.559646	1.026700	-0.083595
C28	C	-0.656437	1.027809	-0.083656
C29	C	-0.656268	1.029681	0.082894
C30	C	-0.559777	1.026266	0.083990
C31	C	-0.435850	0.978958	0.000021
C32	C	-0.792796	0.985250	0.000050
C33	C	0.038765	0.988204	0.000057
C34	C	0.131718	0.986583	0.000061
C35	C	-0.108169	1.134108	0.000050
C36	C	-0.109795	1.226403	0.000049
N37	N	-0.114320	0.982095	0.228217
N38	N	-0.114320	0.982116	-0.228132
C39	C	-0.057399	1.038648	0.453949
C40	C	-0.057397	1.038651	0.546138
C41	C	-0.171243	0.925558	0.546130
C42	C	-0.171240	0.925552	0.453942
C43	C	-0.114319	0.982102	0.407854
C44	C	-0.114320	0.982110	0.592231
C45	C	-0.114318	0.982112	0.692187
C46	C	-0.114320	0.982098	0.307891
H47	H	-0.254113	0.542745	0.000026
O48	O	-0.673043	1.110569	0.083469
C49	C	-0.722300	1.125498	0.009366
H50	H	-0.756920	1.063919	-0.014734
H51	H	-0.769979	1.169910	0.028210
H52	H	-0.679835	1.154737	-0.045299
H53	H	-0.011050	1.084693	0.416426
H54	H	-0.217592	0.879501	0.416408
H55	H	-0.011047	1.084695	0.583667
H56	H	-0.702816	0.855906	0.060336
O57	O	-0.263267	0.377168	-0.000011
C58	C	-0.331601	0.425270	0.000001
H59	H	-0.310331	0.489997	-0.027726
H60	H	-0.384510	0.393268	-0.042524
H61	H	-0.355219	0.431441	0.070261
O62	O	0.037504	0.416068	0.000016
C63	C	0.022669	0.328101	0.000034
H64	H	-0.042681	0.307722	-0.027698
H65	H	0.071968	0.301488	-0.042484
H66	H	0.026725	0.303960	0.070297
O67	O	-0.226507	0.870714	0.591038
C68	C	-0.214293	0.882831	0.682290
H69	H	-0.183015	0.948935	0.694880
H70	H	-0.277704	0.873571	0.717315
H71	H	-0.172286	0.835785	0.708465
H72	H	-0.559115	0.853586	0.059965
O73	O	0.034631	0.587049	0.000014
C74	C	0.102969	0.538954	0.000041
H75	H	0.081704	0.474226	-0.027691
H76	H	0.155874	0.570961	-0.042474
H77	H	0.126591	0.532784	0.070306
O78	O	-0.709465	0.849427	-0.070859
C79	C	-0.754715	0.902947	-0.120958
H80	H	-0.729565	0.970691	-0.106721
H81	H	-0.746949	0.889415	-0.194002
H82	H	-0.824220	0.892014	-0.102664
H83	H	-0.684527	1.000812	0.146283
H84	H	-0.541210	0.992717	0.145856
H85	H	-0.527760	1.093624	-0.086700
H86	H	-0.559752	0.853391	-0.060036
O87	O	-0.688343	0.989826	-0.158323
C88	C	-0.652844	1.033208	-0.232452
H89	H	-0.590167	1.069645	-0.213370
H90	H	-0.642150	0.986672	-0.286717
H91	H	-0.697506	1.078386	-0.257212
O92	O	-0.673891	1.108370	-0.088302
C93	C	-0.721265	1.119280	-0.164889
H94	H	-0.754746	1.056375	-0.186672
H95	H	-0.769840	1.164024	-0.150326
H96	H	-0.677520	1.146265	-0.219597
H97	H	-0.526785	1.092645	0.089048
O98	O	-0.535857	0.988420	-0.157828
C99	C	-0.572917	0.904715	-0.158788
H100	H	-0.631493	0.898240	-0.115460
H101	H	-0.591197	0.885725	-0.229126
H102	H	-0.526033	0.862495	-0.132557
