data_functionalizedCrystal
_audit_creation_method	'MofGen! by Chris Wilmer'
_symmetry_space_group_name_H-M	'P1'
_symmetry_Int_Tables_number	1
_symmetry_cell_setting	triclinic
loop_
_symmetry_equiv_pos_as_xyz
  x,y,z
_cell_length_a	21.395364
_cell_length_b	18.050589
_cell_length_c	21.395356
_cell_angle_alpha	90.022373
_cell_angle_beta	89.983509
_cell_angle_gamma	89.950351
loop_
_atom_site_label
_atom_site_type_symbol
_atom_site_fract_x
_atom_site_fract_y
_atom_site_fract_z
Zn1	Zn	0.957792	0.295378	-0.354287
Zn2	Zn	1.457792	0.795378	0.145713
Zn3	Zn	0.957702	0.419571	-0.249520
Zn4	Zn	1.457702	0.919571	0.250480
Zn5	Zn	0.853022	0.295432	-0.249523
Zn6	Zn	1.353022	0.795432	0.250477
Zn7	Zn	0.852969	0.419564	-0.354260
Zn8	Zn	1.352969	0.919564	0.145740
O9	O	0.905371	0.357486	-0.301898
O10	O	1.405371	0.857486	0.198102
O11	O	1.045458	0.311834	-0.340399
O12	O	1.545458	0.811834	0.159601
O13	O	0.943800	0.403129	-0.161842
O14	O	1.443800	0.903129	0.338158
O15	O	0.866980	0.191500	-0.263433
O16	O	1.366980	0.691500	0.236567
O17	O	1.045392	0.403078	-0.263427
O18	O	1.545392	0.903078	0.236573
O19	O	0.943954	0.191461	-0.340402
O20	O	1.443954	0.691461	0.159598
O21	O	0.866892	0.311925	-0.161845
O22	O	1.366892	0.811925	0.338155
O23	O	0.765337	0.311917	-0.263407
O24	O	1.265337	0.811917	0.236593
O25	O	0.866890	0.403064	-0.441942
O26	O	1.366890	0.903064	0.058058
O27	O	0.765298	0.403116	-0.340357
O28	O	1.265298	0.903116	0.159643
O29	O	0.943903	0.311826	-0.441961
O30	O	1.443903	0.811826	0.058039
O31	O	0.943749	0.523495	-0.263401
O32	O	1.443749	1.023495	0.236599
O33	O	0.866802	0.523489	-0.340353
O34	O	1.366802	1.023489	0.159647
C35	C	0.742584	0.357522	-0.301880
C36	C	1.242584	0.857522	0.198120
C37	C	0.672942	0.357556	-0.301887
C38	C	1.172942	0.857556	0.198113
C39	C	0.640286	0.310123	-0.342028
C40	C	1.140286	0.810123	0.157972
C41	C	0.574851	0.310103	-0.342031
C42	C	1.074851	0.810103	0.157969
C43	C	0.542074	0.357529	-0.301899
C44	C	1.042074	0.857529	0.198101
C45	C	0.574738	0.404966	-0.261750
C46	C	1.074738	0.904966	0.238250
C47	C	0.640172	0.404979	-0.261744
C48	C	1.140172	0.904979	0.238256
C49	C	0.438346	0.424411	-0.296867
C50	C	0.938346	0.924411	0.203133
C51	C	0.372913	0.424399	-0.296877
C52	C	0.872913	0.924399	0.203123
C53	C	0.340253	0.357489	-0.301913
C54	C	0.840253	0.857489	0.198087
C55	C	0.373034	0.290588	-0.306951
C56	C	0.873034	0.790588	0.193049
C57	C	0.438468	0.290601	-0.306946
C58	C	0.938468	0.790601	0.193054
C59	C	0.471122	0.357520	-0.301900
C60	C	0.971122	0.857520	0.198100
C61	C	0.236644	0.310030	-0.342059
C62	C	0.736644	0.810030	0.157941
C63	C	0.171208	0.310009	-0.342057
C64	C	0.671208	0.810009	0.157943
C65	C	0.171097	0.404879	-0.261779
C66	C	0.671097	0.904879	0.238221
C67	C	0.236532	0.404893	-0.261777
C68	C	0.736532	0.904893	0.238223
C69	C	0.269302	0.357470	-0.301921
C70	C	0.769302	0.857470	0.198079
C71	C	0.905277	0.550438	-0.301888
C72	C	1.405277	1.050438	0.198112
C73	C	0.905294	0.632984	-0.301904
C74	C	1.405294	1.132984	0.198096
C75	C	0.863473	0.832459	-0.343737
C76	C	1.363473	1.332459	0.156263
C77	C	0.848198	0.881903	-0.286564
C78	C	1.348198	1.381903	0.213436
C79	C	0.905341	0.784115	-0.301913
C80	C	1.405341	1.284115	0.198087
C81	C	0.920633	0.881752	-0.359093
C82	C	1.420633	1.381752	0.140907
C83	C	0.905386	0.930100	-0.301926
C84	C	1.405386	1.430100	0.198074
C85	C	0.890037	0.832471	-0.244710
C86	C	1.390037	1.332471	0.255290
C87	C	0.962498	0.832317	-0.317277
C88	C	1.462498	1.332317	0.182723
C89	C	0.947245	0.881738	-0.260065
C90	C	1.447245	1.381738	0.239935
C91	C	0.905314	0.700016	-0.301906
C92	C	1.405314	1.200016	0.198094
C93	C	0.905413	1.014196	-0.301927
C94	C	1.405413	1.514196	0.198073
C95	C	1.068794	0.357451	-0.301916
C96	C	1.568794	0.857451	0.198084
C97	C	1.138436	0.357435	-0.301923
C98	C	1.638436	0.857435	0.198077
C99	C	0.905400	0.357439	-0.465321
C100	C	1.405400	0.857439	0.034679
C101	C	0.905413	0.357418	-0.534962
C102	C	1.405413	0.857418	-0.034962
C103	C	0.905459	1.163781	-0.301922
C104	C	1.405459	1.663781	0.198078
C105	C	0.905435	1.081235	-0.301934
C106	C	1.405435	1.581235	0.198066
C107	C	0.945572	0.309792	-1.036770
C108	C	1.445572	0.809792	-0.536770
C109	C	0.945567	0.309810	-0.971334
C110	C	1.445567	0.809810	-0.471334
C111	C	0.905466	0.357319	-0.938601
C112	C	1.405466	0.857319	-0.438601
C113	C	0.865379	0.404828	-0.971308
C114	C	1.365379	0.904828	-0.471308
C115	C	0.865389	0.404814	-1.036742
C116	C	1.365389	0.904814	-0.536742
C117	C	0.848997	0.363218	-0.834925
C118	C	1.348997	0.863218	-0.334925
C119	C	0.848985	0.363227	-0.769492
C120	C	1.348985	0.863227	-0.269492
C121	C	0.905434	0.357367	-0.736780
C122	C	1.405434	0.857367	-0.236780
C123	C	0.961896	0.351482	-0.769509
C124	C	1.461896	0.851482	-0.269509
C125	C	0.961907	0.351468	-0.834943
C126	C	1.461907	0.851468	-0.334943
C127	C	0.905451	0.357340	-0.867648
C128	C	1.405451	0.857340	-0.367648
C129	C	0.945517	0.309884	-0.633128
C130	C	1.445517	0.809884	-0.133128
C131	C	0.945513	0.309908	-0.567691
C132	C	1.445513	0.809908	-0.067691
C133	C	0.865319	0.404921	-0.567666
C134	C	1.365319	0.904921	-0.067666
C135	C	0.865328	0.404902	-0.633102
C136	C	1.365328	0.904902	-0.133102
C137	C	0.905427	0.357380	-0.665829
C138	C	1.405427	0.857380	-0.165829
C139	C	0.905378	0.357480	-0.139110
C140	C	1.405378	0.857480	0.360890
C141	C	0.905487	0.357291	-0.069469
C142	C	1.405487	0.857291	0.430531
H143	H	0.263327	0.271411	-0.374742
H144	H	0.763327	0.771411	0.125258
Br145	Br	0.804386	0.796390	-0.402606
Br146	Br	1.304386	1.296390	0.097394
H147	H	0.978167	0.271188	-0.659776
H148	H	1.478167	0.771188	-0.159776
Br149	Br	1.043009	0.795988	-0.338962
Br150	Br	1.543009	1.295988	0.161038
Br151	Br	0.810904	0.469411	-0.523249
Br152	Br	1.310904	0.969411	-0.023249
Br153	Br	0.126887	0.245625	-0.396534
Br154	Br	0.626887	0.745625	0.103466
Br155	Br	0.684495	0.469354	-0.207259
Br156	Br	1.184495	0.969354	0.292741
Br157	Br	0.280855	0.469264	-0.207292
Br158	Br	0.780855	0.969264	0.292708
H159	H	0.346444	0.236103	-0.311052
H160	H	0.846444	0.736103	0.188948
Br161	Br	0.482955	0.199813	-0.313782
Br162	Br	0.982955	0.699813	0.186218
H163	H	0.832684	0.443578	-0.659726
H164	H	1.332684	0.943578	-0.159726
Br165	Br	0.999973	0.245344	-0.926947
Br166	Br	1.499973	0.745344	-0.426947
H167	H	0.799883	0.903699	-0.273581
H168	H	1.299883	1.403699	0.226419
H169	H	0.464933	0.478901	-0.292766
H170	H	0.964933	0.978901	0.207234
H171	H	0.933549	0.903400	-0.407444
H172	H	1.433549	1.403400	0.092556
Br173	Br	1.000017	0.245329	-1.081182
Br174	Br	1.500017	0.745329	-0.581182
H175	H	1.007880	0.346679	-0.861588
H176	H	1.507880	0.846679	-0.361588
Br177	Br	1.038512	0.343542	-0.725122
Br178	Br	1.538512	0.843542	-0.225122
Br179	Br	1.006295	0.917577	-0.201060
Br180	Br	1.506295	1.417577	0.298940
H181	H	0.978160	0.271230	-0.541069
H182	H	1.478160	0.771230	-0.041069
H183	H	0.144411	0.443494	-0.229102
H184	H	0.644411	0.943494	0.270898
H185	H	0.803011	0.368018	-0.742849
H186	H	1.303011	0.868018	-0.242849
Br187	Br	0.772380	0.371162	-0.879314
Br188	Br	1.272380	0.871162	-0.379314
H189	H	0.346228	0.478873	-0.292777
H190	H	0.846228	0.978873	0.207223
H191	H	0.548047	0.443580	-0.229073
H192	H	1.048047	0.943580	0.270927
H193	H	0.832729	0.443511	-0.944652
H194	H	1.332729	0.943511	-0.444652
H195	H	0.832746	0.443494	-1.063366
H196	H	1.332746	0.943494	-0.563366
H197	H	0.877064	0.810913	-0.196345
H198	H	1.377064	1.310913	0.303655
H199	H	0.666963	0.271507	-0.374716
H200	H	1.166963	0.771507	0.125284
H201	H	0.548257	0.271474	-0.374718
H202	H	1.048257	0.771474	0.125282
