data_functionalizedCrystal
_audit_creation_method	'MofGen! by Chris Wilmer'
_symmetry_space_group_name_H-M	'P1'
_symmetry_Int_Tables_number	1
_symmetry_cell_setting	triclinic
loop_
_symmetry_equiv_pos_as_xyz
  x,y,z
_cell_length_a	6.817900
_cell_length_b	16.305597
_cell_length_c	16.305550
_cell_angle_alpha	95.371930
_cell_angle_beta	103.455250
_cell_angle_gamma	103.455834
loop_
_atom_site_label
_atom_site_type_symbol
_atom_site_fract_x
_atom_site_fract_y
_atom_site_fract_z
V1	V	-4.026184	-0.117429	-0.263322
O2	O	-4.013844	0.004910	-0.258012
O3	O	-3.977574	-0.232137	-0.261808
O4	O	-3.977591	-0.115944	-0.378036
O5	O	-4.013827	-0.112087	-0.140980
V6	V	-4.509864	-0.102758	-0.248654
O7	O	-4.287097	-0.149611	-0.295498
O8	O	-4.699147	-0.070575	-0.216479
O9	O	-4.335267	0.011951	-0.250169
O10	O	-4.639601	-0.225097	-0.253965
O11	O	-4.639617	-0.108099	-0.370997
O12	O	-4.335250	-0.104243	-0.133941
C13	C	-3.822530	-0.260091	-0.257728
C14	C	-3.864072	-0.353868	-0.257254
C15	C	-4.015199	-0.694622	-0.255573
C16	C	-3.779480	-0.653779	-0.250966
C17	C	-3.735942	-0.556181	-0.251124
C18	C	-3.940222	-0.525570	-0.256407
C19	C	-4.023196	-0.550725	-0.177802
C20	C	-4.065002	-0.648256	-0.177220
C21	C	-4.153223	-0.674025	-0.338559
C22	C	-4.106392	-0.576516	-0.340014
C23	C	-3.897858	-0.430029	-0.256876
C24	C	-4.057566	-0.790162	-0.255098
C25	C	-3.822550	-0.111874	-0.405987
C26	C	-3.864102	-0.111419	-0.499768
C27	C	-4.015190	-0.109655	-0.840509
C28	C	-3.779145	-0.104421	-0.799567
C29	C	-3.735951	-0.105243	-0.702074
C30	C	-3.940232	-0.110530	-0.671463
C31	C	-4.107221	-0.193843	-0.722296
C32	C	-4.149085	-0.193372	-0.819844
C33	C	-4.069986	-0.032242	-0.794473
C34	C	-4.022057	-0.031583	-0.696629
C35	C	-3.897882	-0.111027	-0.575926
C36	C	-4.057549	-0.109164	-0.936046
C37	C	-4.153653	0.039900	-0.254247
C38	C	-4.091350	0.133676	-0.254726
C39	C	-4.153633	-0.108316	-0.105985
C40	C	-4.091320	-0.108767	-0.012204
H41	H	-3.966022	-0.659587	-0.114785
N42	N	-4.297540	-0.551690	-0.350971
N43	N	-4.463817	-0.605733	-0.354269
H44	H	-4.598824	-0.588201	-0.362003
H45	H	-4.325854	-0.701034	-0.342754
H46	H	-3.609485	-0.045341	-0.666902
N47	N	-4.367151	-0.202556	-0.855006
N48	N	-4.436895	-0.203856	-0.933257
H49	H	-4.590905	-0.210353	-0.958091
N50	N	-4.278265	-0.681929	-0.177131
N51	N	-4.320776	-0.718571	-0.117034
H52	H	-4.471387	-0.742347	-0.116964
N53	N	-4.211408	-0.525835	-0.178858
N54	N	-4.375964	-0.580925	-0.182147
H55	H	-4.508891	-0.563347	-0.182893
H56	H	-3.905201	-0.514946	-0.115910
N57	N	-4.299345	-0.202468	-0.698590
N58	N	-4.315373	-0.147176	-0.643834
H59	H	-4.451060	-0.153265	-0.627090
N60	N	-4.103676	-0.266875	-0.858158
N61	N	-4.126311	-0.279814	-0.936993
H62	H	-4.094231	-0.331725	-0.964049
N63	N	-3.646047	-0.028916	-0.814891
N64	N	-3.723595	0.021920	-0.856169
H65	H	-3.629596	0.075249	-0.866997
N66	N	-4.037631	-0.267377	-0.701380
N67	N	-3.865190	-0.258635	-0.649081
H68	H	-3.816029	-0.310566	-0.634308
H69	H	-3.978618	0.030884	-0.807685
H70	H	-4.125534	-0.706698	-0.398171
H71	H	-3.901043	0.030041	-0.662098
N72	N	-4.032599	-0.557023	-0.412989
N73	N	-4.134579	-0.524551	-0.468932
H74	H	-4.082465	-0.510778	-0.520471
H75	H	-3.734025	-0.160039	-0.831217
N76	N	-4.206849	-0.030320	-0.669847
N77	N	-4.366822	-0.091261	-0.697283
H78	H	-4.497353	-0.090388	-0.678371
H79	H	-4.242049	-0.035336	-0.821297
H80	H	-3.669702	-0.539416	-0.307294
N81	N	-3.652602	-0.175821	-0.681787
N82	N	-3.606173	-0.188695	-0.606165
H83	H	-3.547309	-0.238544	-0.591837
N84	N	-3.721976	-0.692207	-0.321151
N85	N	-3.854041	-0.750148	-0.375384
H86	H	-3.813434	-0.777294	-0.424956
H87	H	-3.609149	-0.521585	-0.191100
N88	N	-3.647729	-0.670516	-0.175883
N89	N	-3.726682	-0.712393	-0.125751
H90	H	-3.633640	-0.724215	-0.072722
