data_functionalizedCrystal
_audit_creation_method	'MofGen! by Chris Wilmer'
_symmetry_space_group_name_H-M	'P1'
_symmetry_Int_Tables_number	1
_symmetry_cell_setting	triclinic
loop_
_symmetry_equiv_pos_as_xyz
  x,y,z
_cell_length_a	15.297475
_cell_length_b	18.050589
_cell_length_c	15.297738
_cell_angle_alpha	99.659269
_cell_angle_beta	72.640597
_cell_angle_gamma	80.331321
loop_
_atom_site_label
_atom_site_type_symbol
_atom_site_fract_x
_atom_site_fract_y
_atom_site_fract_z
Zn1	Zn	1.512611	-0.621396	-0.771452
Zn2	Zn	1.485589	-0.719579	-0.615933
Zn3	Zn	1.330203	-0.569413	-0.589093
Zn4	Zn	1.357040	-0.719517	-0.744535
O5	O	1.421361	-0.657476	-0.680253
O6	O	1.639163	-0.656201	-0.773319
O7	O	1.442437	-0.677930	-0.482235
O8	O	1.354477	-0.472399	-0.613316
O9	O	1.619310	-0.728336	-0.659060
O10	O	1.488492	-0.510591	-0.747294
O11	O	1.328276	-0.567603	-0.462516
O12	O	1.203626	-0.567543	-0.587216
O13	O	1.400217	-0.728230	-0.878244
O14	O	1.223343	-0.677824	-0.701418
O15	O	1.514514	-0.656141	-0.898019
O16	O	1.468460	-0.823480	-0.632961
O17	O	1.374015	-0.823434	-0.727444
C18	C	1.179742	-0.617037	-0.638484
C19	C	1.076380	-0.599758	-0.620637
C20	C	1.421246	-0.850407	-0.680219
C21	C	1.421287	-0.932963	-0.680249
C22	C	0.826121	-0.780975	-0.807811
C23	C	0.923234	-0.797214	-0.824576
C24	C	0.961525	-0.747851	-0.773593
C25	C	0.902694	-0.682247	-0.705841
C26	C	0.805570	-0.666009	-0.689069
C27	C	0.940975	-0.632886	-0.654851
C28	C	0.882144	-0.567281	-0.587099
C29	C	0.785030	-0.551046	-0.570331
C30	C	0.746738	-0.600409	-0.621314
C31	C	1.038099	-0.649123	-0.671624
C32	C	1.017548	-0.534158	-0.552882
C33	C	0.920435	-0.517919	-0.536116
C34	C	1.369985	-1.132422	-0.731618
C35	C	1.332638	-1.163886	-0.642845
C36	C	1.421381	-1.084111	-0.680277
C37	C	1.458775	-1.199737	-0.769069
C38	C	1.421470	-1.230113	-0.680311
C39	C	1.383981	-1.114473	-0.591451
C40	C	1.510167	-1.150335	-0.717739
C41	C	1.472842	-1.181773	-0.628913
C42	C	1.421327	-1.000002	-0.680259
C43	C	1.421523	-1.314219	-0.680321
C44	C	1.663923	-0.698074	-0.722186
C45	C	1.767289	-0.715375	-0.740056
C46	C	1.463373	-0.697977	-0.922818
C47	C	1.481276	-0.715236	-1.026185
C48	C	1.421505	-0.463799	-0.680313
C49	C	1.421567	-0.381266	-0.680339
C50	C	1.549125	-0.780787	-1.085015
C51	C	1.565951	-0.796997	-1.182134
C52	C	1.514925	-0.747662	-1.220432
C53	C	1.447071	-0.682113	-1.161601
C54	C	1.430248	-0.665898	-1.064473
C55	C	1.396048	-0.632773	-1.199890
C56	C	1.328194	-0.567224	-1.141060
C57	C	1.311373	-0.551012	-1.043941
C58	C	1.362399	-0.600347	-1.005644
C59	C	1.412871	-0.648988	-1.297018
C60	C	1.293994	-0.534099	-1.276477
C61	C	1.277168	-0.517889	-1.179357
C62	C	1.379566	-0.617088	-0.438641
C63	C	1.361843	-0.599650	-0.335306
H64	H	1.085990	-0.702539	-0.726789
H65	H	1.585199	-1.143777	-0.749436
C66	C	1.311147	-1.103109	-0.790151
N67	N	1.266827	-1.081026	-0.834231
H68	H	1.048724	-0.493963	-0.511366
H69	H	1.528630	-0.760865	-1.299511
H70	H	1.468120	-0.702359	-1.344909
H71	H	1.257597	-1.170451	-0.611186
C72	C	0.987941	-0.869378	-0.899099
N73	N	1.036679	-0.923736	-0.955234
H74	H	1.490366	-1.236591	-0.844145
H75	H	1.352304	-1.077691	-0.516340
H76	H	1.621199	-0.850367	-1.230027
H77	H	1.516333	-1.203300	-0.585449
C78	C	1.605247	-0.835046	-1.042880
N79	N	1.647522	-0.875917	-1.011143
H80	H	1.348703	-0.587152	-0.926562
C81	C	1.236737	-0.478902	-0.979231
N82	N	1.180520	-0.424589	-0.930492
C83	C	1.202540	-0.445779	-1.114634
N84	N	1.146334	-0.391465	-1.065883
C85	C	1.237860	-0.479828	-1.318599
N86	N	1.195585	-0.438954	-1.350333
H87	H	1.040600	-0.761077	-0.787248
C88	C	0.783992	-0.835268	-0.863880
N89	N	0.752260	-0.876165	-0.906116
H90	H	0.667662	-0.587189	-0.607669
H91	H	0.737129	-0.497633	-0.515153
C92	C	0.855708	-0.445757	-0.461587
N93	N	0.806954	-0.391406	-0.405451
