data_functionalizedCrystal
_audit_creation_method	'MofGen! by Chris Wilmer'
_symmetry_space_group_name_H-M	'P1'
_symmetry_Int_Tables_number	1
_symmetry_cell_setting	triclinic
loop_
_symmetry_equiv_pos_as_xyz
  x,y,z
_cell_length_a	10.654550
_cell_length_b	15.072220
_cell_length_c	10.654550
_cell_angle_alpha	89.990770
_cell_angle_beta	95.515069
_cell_angle_gamma	90.000665
loop_
_atom_site_label
_atom_site_type_symbol
_atom_site_fract_x
_atom_site_fract_y
_atom_site_fract_z
O1	O	1.667839	0.073716	-0.176408
O2	O	1.917839	0.323716	0.073592
O3	O	2.167839	0.573716	0.323592
O4	O	2.417839	0.823716	0.573592
O5	O	1.302361	0.073732	-0.193214
O6	O	1.552361	0.323732	0.056786
O7	O	1.802361	0.573732	0.306786
O8	O	2.052361	0.823732	0.556786
O9	O	1.493503	0.073718	-0.002071
O10	O	1.743503	0.323718	0.247929
O11	O	1.993503	0.573718	0.497929
O12	O	2.243503	0.823718	0.747929
O13	O	1.476697	0.073730	-0.367550
O14	O	1.726697	0.323730	-0.117550
O15	O	1.976697	0.573730	0.132450
O16	O	2.226697	0.823730	0.382450
O17	O	1.493490	-0.073847	-0.002048
O18	O	1.743490	0.176153	0.247952
O19	O	1.993490	0.426153	0.497952
O20	O	2.243490	0.676153	0.747952
O21	O	1.302348	-0.073833	-0.193190
O22	O	1.552348	0.176167	0.056810
O23	O	1.802348	0.426167	0.306810
O24	O	2.052348	0.676167	0.556810
O25	O	1.667826	-0.073849	-0.176384
O26	O	1.917826	0.176151	0.073616
O27	O	2.167826	0.426151	0.323616
O28	O	2.417826	0.676151	0.573616
Zn29	Zn	1.485085	-0.097270	-0.184784
Zn30	Zn	1.735085	0.152730	0.065216
Zn31	Zn	1.985085	0.402730	0.315216
Zn32	Zn	2.235085	0.652730	0.565216
Zn33	Zn	1.485102	0.097153	-0.184814
Zn34	Zn	1.735102	0.347153	0.065186
Zn35	Zn	1.985102	0.597153	0.315186
Zn36	Zn	2.235102	0.847153	0.565186
O37	O	1.476684	-0.073835	-0.367527
O38	O	1.726684	0.176165	-0.117527
O39	O	1.976684	0.426165	0.132473
O40	O	2.226684	0.676165	0.382473
C41	C	1.255556	-0.000048	-0.191968
C42	C	1.505556	0.249952	0.058032
C43	C	1.755556	0.499952	0.308032
C44	C	2.005556	0.749952	0.558032
C45	C	1.116113	-0.000042	-0.188276
C46	C	1.366113	0.249958	0.061724
C47	C	1.616113	0.499958	0.311724
C48	C	1.866113	0.749958	0.561724
N49	N	1.485083	-0.229959	-0.184762
N50	N	1.735083	0.020041	0.065238
N51	N	1.985083	0.270041	0.315238
N52	N	2.235083	0.520041	0.565238
C53	C	1.036628	-0.000041	-0.300818
C54	C	1.286628	0.249959	-0.050818
C55	C	1.536628	0.499959	0.199182
C56	C	1.786628	0.749959	0.449182
C57	C	0.905607	-0.000057	-0.297341
C58	C	1.155607	0.249943	-0.047341
C59	C	1.405607	0.499943	0.202659
C60	C	1.655607	0.749943	0.452659
C61	C	0.933570	-0.000071	-0.068772
C62	C	1.183570	0.249929	0.181228
C63	C	1.433570	0.499929	0.431228
C64	C	1.683570	0.749929	0.681228
C65	C	1.064588	-0.000061	-0.072250
C66	C	1.314588	0.249939	0.177750
C67	C	1.564588	0.499939	0.427750
C68	C	1.814588	0.749939	0.677750
C69	C	1.485103	-0.589160	-0.184805
C70	C	1.735103	-0.339160	0.065195
C71	C	1.985103	-0.089160	0.315195
C72	C	2.235103	0.160840	0.565195
C73	C	1.587717	-0.551533	-0.082876
C74	C	1.837717	-0.301533	0.167124
C75	C	2.087717	-0.051533	0.417124
C76	C	2.337717	0.198467	0.667124
C77	C	1.587444	-0.448708	-0.082494
C78	C	1.837444	-0.198708	0.167506
C79	C	2.087444	0.051292	0.417506
C80	C	2.337444	0.301292	0.667506
C81	C	1.485094	-0.410956	-0.184783
C82	C	1.735094	-0.160956	0.065217
C83	C	1.985094	0.089044	0.315217
C84	C	2.235094	0.339044	0.565217
C85	C	1.353813	-0.448294	-0.155022
C86	C	1.603813	-0.198294	0.094978
C87	C	1.853813	0.051706	0.344978
C88	C	2.103813	0.301706	0.594978
C89	C	1.354420	-0.551152	-0.154301
C90	C	1.604420	-0.301152	0.095699
C91	C	1.854420	-0.051152	0.345699
C92	C	2.104420	0.198848	0.595699
C93	C	1.512592	-0.551234	-0.316788
C94	C	1.762592	-0.301234	-0.066788
C95	C	2.012592	-0.051234	0.183212
C96	C	2.262592	0.198766	0.433212
C97	C	1.515559	-0.448370	-0.315931
C98	C	1.765559	-0.198370	-0.065931
C99	C	2.015559	0.051630	0.184069
C100	C	2.265559	0.301630	0.434069
C101	C	1.485081	-0.310243	-0.184774
C102	C	1.735081	-0.060243	0.065226
C103	C	1.985081	0.189757	0.315226
C104	C	2.235081	0.439757	0.565226
C105	C	1.485108	-0.689874	-0.184812
C106	C	1.735108	-0.439874	0.065188
C107	C	1.985108	-0.189874	0.315188
C108	C	2.235108	0.060126	0.565188
C109	C	1.714631	-0.000067	-0.177630
C110	C	1.964631	0.249933	0.072370
C111	C	2.214631	0.499933	0.322370
C112	C	2.464631	0.749933	0.572370
C113	C	1.854074	-0.000067	-0.181322
C114	C	2.104074	0.249933	0.068678
C115	C	2.354074	0.499933	0.318678
C116	C	2.604074	0.749933	0.568678
C117	C	1.492263	-0.000064	0.044738
C118	C	1.742263	0.249936	0.294738
C119	C	1.992263	0.499936	0.544738
C120	C	2.242263	0.749936	0.794738
C121	C	1.488571	-0.000062	0.184181
C122	C	1.738571	0.249938	0.434181
C123	C	1.988571	0.499938	0.684181
C124	C	2.238571	0.749938	0.934181
N125	N	1.485114	0.229842	-0.184826
N126	N	1.735114	0.479842	0.065174
N127	N	1.985114	0.729842	0.315174
N128	N	2.235114	0.979842	0.565174
C129	C	1.477925	-0.000051	-0.414336
C130	C	1.727925	0.249949	-0.164336
C131	C	1.977925	0.499949	0.085664
C132	C	2.227925	0.749949	0.335664
C133	C	1.481616	-0.000047	-0.553779
C134	C	1.731616	0.249953	-0.303779
C135	C	1.981616	0.499953	-0.053779
C136	C	2.231616	0.749953	0.196221
C137	C	1.601112	-0.000067	0.263667
C138	C	1.851112	0.249933	0.513667
C139	C	2.101112	0.499933	0.763667
C140	C	2.351112	0.749933	1.013667
C141	C	1.597636	-0.000056	0.394688
C142	C	1.847636	0.249944	0.644688
C143	C	2.097636	0.499944	0.894688
C144	C	2.347636	0.749944	1.144688
C145	C	1.369066	-0.000039	0.366725
C146	C	1.619066	0.249961	0.616725
C147	C	1.869066	0.499961	0.866725
C148	C	2.119066	0.749961	1.116725
C149	C	1.372544	-0.000044	0.235706
C150	C	1.622544	0.249956	0.485706
C151	C	1.872544	0.499956	0.735706
C152	C	2.122544	0.749956	0.985706
H153	H	1.078574	-0.000032	-0.395294
H154	H	1.328574	0.249968	-0.145294
H155	H	1.578574	0.499968	0.104706
H156	H	1.828574	0.749968	0.354706
H157	H	1.275566	-0.423842	-0.227237
H158	H	1.525566	-0.173842	0.022763
H159	H	1.775566	0.076158	0.272763
H160	H	2.025566	0.326158	0.522763
H161	H	1.695588	-0.000080	0.221720
H162	H	1.945588	0.249920	0.471720
H163	H	2.195588	0.499920	0.721720
H164	H	2.445588	0.749920	0.971720
H165	H	1.689279	-0.000058	0.459401
H166	H	1.939279	0.249942	0.709401
H167	H	2.189279	0.499942	0.959401
H168	H	2.439279	0.749942	1.209401
H169	H	1.129309	-0.000065	0.019401
H170	H	1.379309	0.249935	0.269401
H171	H	1.629309	0.499935	0.519401
H172	H	1.879309	0.749935	0.769401
H173	H	1.280893	-0.000038	0.170985
H174	H	1.530893	0.249962	0.420985
H175	H	1.780893	0.499962	0.670985
H176	H	2.030893	0.749962	0.920985
H177	H	1.569762	-0.424113	0.015429
H178	H	1.819762	-0.174113	0.265429
H179	H	2.069762	0.075887	0.515429
H180	H	2.319762	0.325887	0.765429
H181	H	1.684994	-0.423463	-0.100384
H182	H	1.934994	-0.173463	0.149616
H183	H	2.184994	0.076537	0.399616
H184	H	2.434994	0.326537	0.649616
H185	H	1.275709	-0.576044	-0.225659
H186	H	1.525709	-0.326044	0.024341
H187	H	1.775709	-0.076044	0.274341
H188	H	2.025709	0.173956	0.524341
H189	H	1.570286	-0.577394	0.014490
H190	H	1.820286	-0.327394	0.264490
H191	H	2.070286	-0.077394	0.514490
H192	H	2.320286	0.172606	0.764490
H193	H	0.891602	-0.000092	0.025693
H194	H	1.141602	0.249908	0.275693
H195	H	1.391602	0.499908	0.525693
H196	H	1.641602	0.749908	0.775693
H197	H	0.840894	-0.000057	-0.388984
H198	H	1.090894	0.249943	-0.138984
H199	H	1.340894	0.499943	0.111016
H200	H	1.590894	0.749943	0.361016
H201	H	1.685592	-0.576267	-0.100494
H202	H	1.935592	-0.326267	0.149506
H203	H	2.185592	-0.076267	0.399506
H204	H	2.435592	0.173733	0.649506
H205	H	1.330366	-0.575154	-0.058012
H206	H	1.580366	-0.325154	0.191988
H207	H	1.830366	-0.075154	0.441988
H208	H	2.080366	0.174846	0.691988
H209	H	1.274601	-0.000026	0.408693
H210	H	1.524601	0.249974	0.658693
H211	H	1.774601	0.499974	0.908693
H212	H	2.024601	0.749974	1.158693
H213	H	1.329199	-0.422545	-0.059822
H214	H	1.579199	-0.172545	0.190178
H215	H	1.829199	0.077455	0.440178
H216	H	2.079199	0.327455	0.690178
H217	H	1.606337	-0.577172	-0.345110
H218	H	1.856337	-0.327172	-0.095110
H219	H	2.106337	-0.077172	0.154890
H220	H	2.356337	0.172828	0.404890
H221	H	1.612140	-0.423967	-0.338488
H222	H	1.862140	-0.173967	-0.088488
H223	H	2.112140	0.076033	0.161512
H224	H	2.362140	0.326033	0.411512
H225	H	1.437777	-0.575572	-0.392655
H226	H	1.687777	-0.325572	-0.142655
H227	H	1.937777	-0.075572	0.107345
H228	H	2.187777	0.174428	0.357345
H229	H	1.445750	-0.422670	-0.395422
H230	H	1.695750	-0.172670	-0.145422
H231	H	1.945750	0.077330	0.104578
H232	H	2.195750	0.327330	0.354578
