data_functionalizedCrystal
_audit_creation_method	'MofGen! by Chris Wilmer'
_symmetry_space_group_name_H-M	'P1'
_symmetry_Int_Tables_number	1
_symmetry_cell_setting	triclinic
loop_
_symmetry_equiv_pos_as_xyz
  x,y,z
_cell_length_a	10.654554
_cell_length_b	10.654550
_cell_length_c	9.730223
_cell_angle_alpha	89.996763
_cell_angle_beta	89.995968
_cell_angle_gamma	84.485873
loop_
_atom_site_label
_atom_site_type_symbol
_atom_site_fract_x
_atom_site_fract_y
_atom_site_fract_z
O1	O	1.667836	0.176427	-0.114311
O2	O	1.302358	0.193227	-0.114308
O3	O	1.493500	0.002087	-0.114304
O4	O	1.476694	0.367566	-0.114314
O5	O	1.493487	0.002082	0.114276
O6	O	1.302345	0.193221	0.114272
O7	O	1.667823	0.176421	0.114269
Zn8	Zn	1.485082	0.184820	0.150563
Zn9	Zn	1.485099	0.184827	-0.150601
O10	O	1.476681	0.367560	0.114266
C11	C	1.255554	0.191989	-0.000017
C12	C	1.116111	0.188295	-0.000016
C13	C	0.933549	0.068808	-0.000031
C14	C	1.064571	0.072279	-0.000017
C15	C	1.036622	0.300848	-0.000015
C16	C	0.905603	0.297376	-0.000020
C17	C	0.949686	-0.063154	-0.000038
C18	C	1.080708	-0.059684	-0.000024
C19	C	1.492260	-0.044713	-0.000016
C20	C	1.488568	-0.184156	-0.000021
C21	C	1.601109	-0.263640	-0.000017
C22	C	1.597632	-0.394661	-0.000027
C23	C	1.369063	-0.366702	-0.000037
C24	C	1.372541	-0.235683	-0.000037
C25	C	1.733072	-0.279784	-0.000005
C26	C	1.729595	-0.410805	-0.000015
C27	C	1.714627	0.177659	-0.000024
C28	C	1.854070	0.181353	-0.000034
C29	C	1.477921	0.414361	-0.000026
C30	C	1.481613	0.553804	-0.000030
N31	N	1.485080	0.184815	0.356099
N32	N	1.485111	0.184823	-0.356138
C33	C	1.569747	0.100215	0.428027
C34	C	1.569760	0.100215	0.571910
C35	C	1.400435	0.269427	0.571925
C36	C	1.400417	0.269420	0.428045
H37	H	0.914063	-0.105173	-0.098734
H38	H	0.920318	-0.114769	0.095617
H39	H	1.122470	-0.109397	-0.095684
H40	H	1.331505	0.338313	0.630517
H41	H	1.126341	-0.099563	0.098677
H42	H	1.280899	-0.170971	-0.000059
N43	N	1.661027	0.008933	0.350430
H44	H	1.648168	0.021758	0.248367
H45	H	1.750255	0.024252	0.375548
N46	N	1.243933	-0.422291	-0.000039
H47	H	1.194570	-0.393385	0.084696
H48	H	1.194680	-0.393360	-0.084830
H49	H	1.784692	-0.250422	-0.095659
N50	N	1.309083	0.360661	0.350453
H51	H	1.255457	0.414264	0.417860
H52	H	1.357628	0.416631	0.290731
H53	H	1.779312	-0.452566	0.095643
H54	H	0.840895	0.389021	-0.000006
H55	H	1.769481	-0.456445	-0.098710
H56	H	1.078596	0.395311	-0.000002
H57	H	1.775088	-0.244158	0.098691
H58	H	1.638701	0.031324	0.630469
