data_functionalizedCrystal
_audit_creation_method	'MofGen! by Chris Wilmer'
_symmetry_space_group_name_H-M	'P1'
_symmetry_Int_Tables_number	1
_symmetry_cell_setting	triclinic
loop_
_symmetry_equiv_pos_as_xyz
  x,y,z
_cell_length_a	19.188933
_cell_length_b	26.809956
_cell_length_c	27.732048
_cell_angle_alpha	90.009578
_cell_angle_beta	82.894112
_cell_angle_gamma	90.014641
loop_
_atom_site_label
_atom_site_type_symbol
_atom_site_fract_x
_atom_site_fract_y
_atom_site_fract_z
O1	O	0.925771	0.041468	0.060351
O2	O	0.722408	0.041474	0.068473
O3	O	0.830405	0.041461	-0.005965
O4	O	0.817773	0.041481	0.134789
O5	O	0.830372	-0.041498	-0.005966
O6	O	0.722375	-0.041486	0.068473
O7	O	0.925738	-0.041491	0.060350
Zn8	Zn	0.824051	-0.054660	0.064412
Zn9	Zn	0.824095	0.054643	0.064412
O10	O	0.817740	-0.041479	0.134789
C11	C	0.696382	-0.000005	0.068210
C12	C	0.618883	-0.000004	0.067420
C13	C	0.065681	0.045211	0.061781
C14	C	0.138501	0.045213	0.062520
C15	C	0.174897	-0.000008	0.062892
C16	C	0.138471	-0.045234	0.062512
C17	C	0.065654	-0.045235	0.061768
N18	N	0.283721	-0.033664	0.091567
N19	N	0.352894	-0.033660	0.092275
C20	C	0.394292	-0.000008	0.065134
N21	N	0.363902	0.033647	0.037264
N22	N	0.294722	0.033645	0.036558
C23	C	0.253856	-0.000012	0.063699
C24	C	0.509669	0.045217	0.066312
C25	C	0.582491	0.045218	0.067049
C26	C	0.582459	-0.045231	0.067046
C27	C	0.509640	-0.045230	0.066304
C28	C	0.473249	-0.000004	0.065940
N29	N	0.824027	-0.129256	0.064411
C30	C	0.866113	-0.473879	0.093651
C31	C	0.866136	-0.682756	0.093651
O32	O	0.901901	-0.709758	0.118506
N33	N	0.824111	-0.708883	0.064407
C34	C	0.782082	-0.682787	0.035159
O35	O	0.746343	-0.709801	0.010281
C36	C	0.782063	-0.473910	0.035157
C37	C	0.824085	-0.447786	0.064406
C38	C	0.908132	-0.447755	0.122898
C39	C	0.908123	-0.395539	0.122900
C40	C	0.866095	-0.369446	0.093655
C41	C	0.824076	-0.395570	0.064408
C42	C	0.740038	-0.447815	0.005906
C43	C	0.740039	-0.395592	0.005907
C44	C	0.782060	-0.369468	0.035157
C45	C	0.782039	-0.317261	0.035165
N46	N	0.824064	-0.291135	0.064409
C47	C	0.866092	-0.317227	0.093654
C48	C	0.782093	-0.792450	0.035162
C49	C	0.782097	-0.844669	0.035163
C50	C	0.866152	-0.844635	0.093655
C51	C	0.866144	-0.792415	0.093656
C52	C	0.824118	-0.766324	0.064406
C53	C	0.866069	-0.207569	0.093656
C54	C	0.866054	-0.155348	0.093656
C55	C	0.782002	-0.155387	0.035163
C56	C	0.782014	-0.207603	0.035164
C57	C	0.824053	-0.233693	0.064412
O58	O	0.746299	-0.290228	0.010318
O59	O	0.901837	-0.290203	0.118520
C60	C	0.866122	-0.526095	0.093650
C61	C	0.824103	-0.552219	0.064403
C62	C	0.782075	-0.526126	0.035158
C63	C	0.824107	-0.604438	0.064404
C64	C	0.866135	-0.630530	0.093649
C65	C	0.908159	-0.604404	0.122893
C66	C	0.908150	-0.552188	0.122895
C67	C	0.740051	-0.552253	0.005914
C68	C	0.740063	-0.604469	0.005915
C69	C	0.782091	-0.630561	0.035160
C70	C	0.951764	-0.000011	0.060614
C71	C	1.029263	-0.000009	0.061404
C72	C	0.830124	-0.000020	-0.023973
C73	C	0.829325	-0.000024	-0.077631
N74	N	0.824125	0.129239	0.064408
C75	C	0.888118	0.000000	-0.416266
C76	C	0.885156	0.000007	-0.617934
O77	O	0.938917	0.000028	-0.649025
N78	N	0.821118	0.000009	-0.637254
C79	C	0.757816	0.000011	-0.606153
O80	O	0.703279	0.000018	-0.627213
C81	C	0.760779	0.000008	-0.404486
C82	C	0.824821	0.000002	-0.385169
C83	C	0.952155	-0.000005	-0.396948
C84	C	0.952895	-0.000010	-0.346534
C85	C	0.889598	-0.000009	-0.315437
C86	C	0.825561	-0.000003	-0.334755
C87	C	0.697478	0.000014	-0.373386
C88	C	0.698224	0.000015	-0.322966
C89	C	0.762266	0.000008	-0.303649
C90	C	0.763004	-0.000006	-0.253243
N91	N	0.827042	-0.000007	-0.233924
C92	C	0.890339	-0.000009	-0.265021
C93	C	0.756264	0.000012	-0.712032
C94	C	0.755523	0.000012	-0.762449
C95	C	0.882864	0.000009	-0.774226
C96	C	0.883604	0.000006	-0.723809
C97	C	0.820302	0.000011	-0.692712
C98	C	0.891888	-0.000018	-0.159147
C99	C	0.892622	-0.000025	-0.108727
C100	C	0.765282	-0.000019	-0.096954
C101	C	0.764548	-0.000015	-0.147369
C102	C	0.827856	-0.000013	-0.178464
O103	O	0.709271	-0.000021	-0.222124
O104	O	0.944867	-0.000004	-0.243951
C105	C	0.887378	0.000005	-0.466680
C106	C	0.823341	0.000011	-0.485997
C107	C	0.760044	0.000012	-0.454900
C108	C	0.822600	0.000011	-0.536414
C109	C	0.885897	0.000009	-0.567511
C110	C	0.949935	0.000008	-0.548191
C111	C	0.950675	0.000004	-0.497777
C112	C	0.696006	0.000013	-0.474220
C113	C	0.695271	0.000017	-0.524635
C114	C	0.758568	0.000016	-0.555732
C115	C	0.818022	0.000004	0.152797
C116	C	0.818820	0.000011	0.206454
H117	H	0.900273	-0.134081	0.117477
Cl118	Cl	0.676677	0.000018	-0.672946
H119	H	0.943440	-0.000015	-0.184459
Cl120	Cl	0.687207	-0.362794	-0.030870
Cl121	Cl	0.463919	0.102071	0.065851
H122	H	0.612142	0.082043	0.067352
H123	H	0.942369	-0.530922	0.146713
H124	H	0.036002	-0.082060	0.061463
Cl125	Cl	0.019937	0.102066	0.061319
H126	H	0.612093	-0.082051	0.067347
Cl127	Cl	0.184293	0.102066	0.062996
H128	H	0.646675	0.000020	-0.297649
H129	H	0.479987	-0.082053	0.065999
Cl130	Cl	0.729180	-0.240445	-0.001603
H131	H	1.005045	-0.000013	-0.330811
H132	H	0.900302	-0.228806	0.117472
Cl133	Cl	0.960974	-0.480548	0.159669
H134	H	0.942345	-0.374274	0.146716
Cl135	Cl	0.616962	0.000025	-0.397657
Cl136	Cl	0.729169	-0.122575	-0.001600
H137	H	0.900362	-0.771149	0.117474
Cl138	Cl	0.675010	0.000010	-0.786726
H139	H	0.747870	-0.865934	0.011351
H140	H	0.643117	0.000018	-0.540357
Cl141	Cl	0.918989	-0.877447	0.130418
H142	H	0.168110	-0.082053	0.062814
H143	H	1.003702	-0.000005	-0.422263
Cl144	Cl	0.729240	-0.759656	-0.001603
H145	H	0.712399	-0.000024	-0.163097
Cl146	Cl	0.687207	-0.480643	-0.030867
Cl147	Cl	0.960991	-0.637216	0.159659
Cl148	Cl	0.687226	-0.637304	-0.030857
H149	H	0.705827	-0.531013	-0.017902
H150	H	0.713748	-0.000020	-0.071626
Cl151	Cl	1.031190	-0.000000	-0.473501
Cl152	Cl	0.964117	-0.000002	-0.699530
Cl153	Cl	0.973139	-0.000032	-0.084447
H154	H	0.934403	0.000008	-0.799554
H155	H	1.001474	0.000005	-0.573519
H156	H	0.644461	0.000015	-0.448905
