data_functionalizedCrystal
_audit_creation_method	'MofGen! by Chris Wilmer'
_symmetry_space_group_name_H-M	'P1'
_symmetry_Int_Tables_number	1
_symmetry_cell_setting	triclinic
loop_
_symmetry_equiv_pos_as_xyz
  x,y,z
_cell_length_a	10.723023
_cell_length_b	10.540510
_cell_length_c	9.198806
_cell_angle_alpha	89.999296
_cell_angle_beta	89.996513
_cell_angle_gamma	84.490429
loop_
_atom_site_label
_atom_site_type_symbol
_atom_site_fract_x
_atom_site_fract_y
_atom_site_fract_z
O1	O	1.657258	0.178044	-0.120869
O2	O	2.157258	0.678044	0.379131
O3	O	1.294112	0.195087	-0.120874
O4	O	1.794112	0.695087	0.379126
O5	O	1.483989	0.001852	-0.120871
O6	O	1.983989	0.501852	0.379129
O7	O	1.467381	0.371279	-0.120872
O8	O	1.967381	0.871279	0.379128
O9	O	1.483974	0.001852	0.120914
O10	O	1.983974	0.501852	0.620914
O11	O	1.294097	0.195087	0.120911
O12	O	1.794097	0.695087	0.620911
O13	O	1.657243	0.178043	0.120916
O14	O	2.157243	0.678043	0.620916
Cu15	Cu	1.475669	0.186565	0.142990
Cu16	Cu	1.975669	0.686565	0.642990
Cu17	Cu	1.475687	0.186565	-0.142949
Cu18	Cu	1.975687	0.686565	0.357051
O19	O	1.467366	0.371278	0.120913
O20	O	1.967366	0.871278	0.620913
C21	C	1.247605	0.193847	0.000017
C22	C	1.747605	0.693847	0.500017
C23	C	1.109049	0.190137	0.000015
C24	C	1.609049	0.690137	0.500015
C25	C	1.047268	0.188482	0.125266
C26	C	1.547268	0.688482	0.625266
C27	C	0.904064	0.184647	0.125266
C28	C	1.404064	0.684647	0.625266
C29	C	1.482744	-0.045451	0.000019
C30	C	1.982744	0.454549	0.500019
C31	C	1.479041	-0.186399	0.000010
C32	C	1.979041	0.313601	0.500010
C33	C	1.610948	-0.403923	0.000565
C34	C	2.110948	0.096077	0.500565
C35	C	1.614898	-0.257329	0.000013
C36	C	2.114898	0.242671	0.500013
C37	C	1.409504	-0.231121	-0.138059
C38	C	1.909504	0.268879	0.361941
C39	C	1.406517	-0.377881	-0.138168
C40	C	1.906517	0.122119	0.361832
C41	C	1.403670	-0.377689	0.136787
C42	C	1.903670	0.122311	0.636787
C43	C	1.410114	-0.231351	0.138605
C44	C	1.910114	0.268649	0.638605
C45	C	1.703751	0.179283	0.000021
C46	C	2.203751	0.679283	0.500021
C47	C	1.842306	0.182994	0.000014
C48	C	2.342306	0.682994	0.500014
C49	C	1.468611	0.418581	0.000020
C50	C	1.968611	0.918581	0.500020
C51	C	1.472314	0.559529	0.000019
C52	C	1.972314	1.059529	0.500019
N53	N	1.475665	0.186564	0.344104
N54	N	1.975665	0.686564	0.844104
N55	N	1.475700	0.186557	-0.344062
N56	N	1.975700	0.686557	0.155938
C57	C	1.555389	0.105072	0.416303
C58	C	2.055389	0.605072	0.916303
C59	C	1.555408	0.105068	0.583715
C60	C	2.055408	0.605068	1.083715
H61	H	0.850933	0.183232	0.232498
H62	H	1.350933	0.683232	0.732498
H63	H	1.623626	0.035302	0.354178
H64	H	2.123626	0.535302	0.854178
H65	H	0.895427	0.184424	-0.107223
H66	H	1.395427	0.684424	0.392777
H67	H	1.623668	0.035304	0.645802
H68	H	2.123668	0.535304	1.145802
F69	F	1.116702	0.190338	0.265430
F70	F	1.616702	0.690338	0.765430
H71	H	1.055923	0.188711	-0.107216
H72	H	1.555923	0.688711	0.392784
F73	F	1.472641	-0.190829	-0.272363
F74	F	1.972641	0.309171	0.227637
H75	H	1.663578	-0.447455	-0.097889
H76	H	2.163578	0.052545	0.402111
F77	F	1.459717	-0.433268	0.273574
F78	F	1.959717	0.066732	0.773574
H79	H	1.460712	-0.202765	0.240747
H80	H	1.960712	0.297235	0.740747
F81	F	1.685989	-0.219004	0.129394
F82	F	2.185989	0.280996	0.629394
F83	F	1.680126	-0.458795	0.129989
F84	F	2.180126	0.041205	0.629989
H85	H	1.310928	-0.182233	0.146941
H86	H	1.810928	0.317767	0.646941
H87	H	1.669635	-0.228952	-0.099129
H88	H	2.169635	0.271048	0.400871
F89	F	1.468654	-0.430482	-0.273062
F90	F	1.968654	0.069518	0.226938
F91	F	1.386485	0.277762	0.574797
F92	F	1.886485	0.777762	1.074797
F93	F	1.273706	-0.407873	-0.146368
F94	F	1.773706	0.092127	0.353632
H95	H	1.309489	-0.183681	-0.143195
H96	H	1.809489	0.316319	0.356805
F97	F	1.386461	0.277748	0.425303
F98	F	1.886461	0.777748	0.925303
H99	H	1.301668	-0.399786	0.137716
H100	H	1.801668	0.100214	0.637716
