data_functionalizedCrystal
_audit_creation_method	'MofGen! by Chris Wilmer'
_symmetry_space_group_name_H-M	'P1'
_symmetry_Int_Tables_number	1
_symmetry_cell_setting	triclinic
loop_
_symmetry_equiv_pos_as_xyz
  x,y,z
_cell_length_a	11.169417
_cell_length_b	21.295417
_cell_length_c	11.169409
_cell_angle_alpha	90.040352
_cell_angle_beta	90.019824
_cell_angle_gamma	90.030581
loop_
_atom_site_label
_atom_site_type_symbol
_atom_site_fract_x
_atom_site_fract_y
_atom_site_fract_z
Zn1	Zn	1.834801	-0.250543	0.678476
Zn2	Zn	1.834622	-0.355832	0.477765
Zn3	Zn	1.634087	-0.250582	0.477810
Zn4	Zn	1.634026	-0.355780	0.678410
O5	O	1.734384	-0.303184	0.578115
O6	O	2.002727	-0.264516	0.651860
O7	O	1.807971	-0.341908	0.309821
O8	O	1.660812	-0.162487	0.504476
O9	O	2.002596	-0.341870	0.504398
O10	O	1.808276	-0.162459	0.651904
O11	O	1.660639	-0.264581	0.309854
O12	O	1.466129	-0.264531	0.504411
O13	O	1.660709	-0.341783	0.846368
O14	O	1.466085	-0.341820	0.651791
O15	O	1.808217	-0.264466	0.846417
O16	O	1.807913	-0.443914	0.504334
O17	O	1.660536	-0.443877	0.651747
C18	C	1.422559	-0.303175	0.578100
C19	C	1.289159	-0.303186	0.578122
C20	C	1.734231	-0.466736	0.578054
C21	C	1.734276	-0.536704	0.578068
C22	C	1.811016	-0.569499	0.654889
C23	C	1.811058	-0.635241	0.654919
C24	C	1.734373	-0.668187	0.578106
C25	C	1.657617	-0.635384	0.501280
C26	C	1.657569	-0.569643	0.501261
N27	N	1.725301	-0.771458	0.473071
N28	N	1.725354	-0.833909	0.473093
C29	C	1.734513	-0.866261	0.578160
N30	N	1.743640	-0.833802	0.683209
N31	N	1.743593	-0.771345	0.683186
C32	C	1.734417	-0.739472	0.578119
C33	C	1.811303	-0.970342	0.655020
C34	C	1.811337	-1.036085	0.655051
C35	C	1.657903	-1.036226	0.501402
C36	C	1.657863	-0.970484	0.501381
C37	C	1.734569	-0.937545	0.578188
C38	C	2.047426	-0.303194	0.578131
C39	C	2.180826	-0.303199	0.578138
C40	C	1.734476	-0.303114	0.891158
C41	C	1.734516	-0.303085	1.024558
C42	C	1.734570	-0.138994	0.578202
C43	C	1.734650	-0.069026	0.578240
C44	C	1.734361	-0.303209	0.266290
C45	C	1.734555	-0.303061	0.132891
H46	H	1.873472	-0.542682	0.717433
O47	O	1.885709	-0.667010	0.729596
C48	C	2.037819	-0.659937	0.882059
C49	C	1.953369	-0.623884	0.797522
H50	H	2.092526	-0.625085	0.937017
H51	H	2.100706	-0.690697	0.827088
H52	H	1.982672	-0.690727	0.944718
H53	H	2.008419	-0.593060	0.734845
H54	H	1.890478	-0.593163	0.852568
O55	O	1.583067	-0.667453	0.426830
C56	C	1.421046	-0.741734	0.410571
C57	C	1.505426	-0.705468	0.495017
H58	H	1.358235	-0.772469	0.465667
H59	H	1.476136	-0.772555	0.347887
H60	H	1.366242	-0.706987	0.355632
H61	H	1.560248	-0.740170	0.550033
H62	H	1.450267	-0.674638	0.557621
O63	O	1.582985	-0.537880	0.426517
C64	C	1.430750	-0.544958	0.274179
C65	C	1.515173	-0.581008	0.358748
H66	H	1.375884	-0.579811	0.219384
H67	H	1.485806	-0.514200	0.211379
H68	H	1.368000	-0.514165	0.329238
H69	H	1.577940	-0.611835	0.303785
H70	H	1.460043	-0.611726	0.421551
O71	O	1.885834	-0.938438	0.729756
C72	C	2.038051	-0.945235	0.882125
C73	C	1.953694	-0.981441	0.797563
H74	H	2.092956	-0.979987	0.936950
H75	H	1.982942	-0.914472	0.944896
H76	H	2.100769	-0.914433	0.827058
H77	H	1.890960	-1.012277	0.852532
H78	H	2.008877	-1.012164	0.734788
O79	O	1.885945	-1.068015	0.729512
C80	C	2.048071	-1.142129	0.745799
C81	C	1.963634	-1.106018	0.661340
H82	H	2.110920	-1.172854	0.690715
H83	H	1.993028	-1.172947	0.808504
H84	H	2.102831	-1.107282	0.800715
H85	H	1.908856	-1.140821	0.606347
H86	H	2.018745	-1.075191	0.598715
O87	O	1.583514	-1.068319	0.426832
C88	C	1.515513	-1.169659	0.358840
C89	C	1.599851	-1.133390	0.443323
H90	H	1.528674	-1.222276	0.372161
H91	H	1.536621	-1.156818	0.262047
H92	H	1.418735	-1.156728	0.379826
H93	H	1.696657	-1.146302	0.422446
H94	H	1.578639	-1.146234	0.540090
O95	O	1.583289	-0.938721	0.426632
C96	C	1.431065	-0.945801	0.274284
C97	C	1.515484	-0.981850	0.358858
H98	H	1.376204	-0.980655	0.219485
H99	H	1.486122	-0.915042	0.211488
H100	H	1.368309	-0.915010	0.329339
H101	H	1.578256	-1.012675	0.303899
H102	H	1.460352	-1.012569	0.421657
