data_functionalizedCrystal
_audit_creation_method	'MofGen! by Chris Wilmer'
_symmetry_space_group_name_H-M	'P1'
_symmetry_Int_Tables_number	1
_symmetry_cell_setting	triclinic
loop_
_symmetry_equiv_pos_as_xyz
  x,y,z
_cell_length_a	12.759401
_cell_length_b	17.640280
_cell_length_c	17.637464
_cell_angle_alpha	92.150542
_cell_angle_beta	101.199732
_cell_angle_gamma	78.801088
loop_
_atom_site_label
_atom_site_type_symbol
_atom_site_fract_x
_atom_site_fract_y
_atom_site_fract_z
Zn1	Zn	1.611777	-0.389118	-0.368275
Zn2	Zn	2.111777	0.110882	0.131725
Zn3	Zn	1.679959	-0.490439	-0.215642
Zn4	Zn	2.179959	0.009561	0.284358
Zn5	Zn	1.463341	-0.363474	-0.241300
Zn6	Zn	1.963341	0.136526	0.258700
Zn7	Zn	1.477091	-0.516062	-0.342606
Zn8	Zn	1.977091	-0.016062	0.157394
O9	O	1.558042	-0.439773	-0.291956
O10	O	2.058042	0.060227	0.208044
O11	O	1.767844	-0.402568	-0.348032
O12	O	2.267844	0.097432	0.151968
O13	O	1.674005	-0.452142	-0.112771
O14	O	2.174005	0.047858	0.387229
O15	O	1.448743	-0.260614	-0.279624
O16	O	1.948743	0.239386	0.220376
O17	O	1.817937	-0.477008	-0.235893
O18	O	2.317937	0.022992	0.264107
O19	O	1.557798	-0.279455	-0.372912
O20	O	2.057798	0.220545	0.127088
O21	O	1.514856	-0.358861	-0.131622
O22	O	2.014856	0.141139	0.368378
O23	O	1.318143	-0.383706	-0.254735
O24	O	1.818143	0.116294	0.245265
O25	O	1.472177	-0.520678	-0.452286
O26	O	1.972177	-0.020678	0.047714
O27	O	1.328245	-0.495812	-0.329164
O28	O	1.828245	0.004188	0.170836
O29	O	1.571131	-0.427413	-0.471145
O30	O	2.071131	0.072587	0.028855
O31	O	1.687337	-0.600100	-0.211003
O32	O	2.187337	-0.100100	0.288997
O33	O	1.538290	-0.618925	-0.304284
O34	O	2.038290	-0.118925	0.195716
C35	C	1.285073	-0.439757	-0.291948
C36	C	1.785073	0.060243	0.208052
C37	C	1.168297	-0.439772	-0.291960
C38	C	1.668297	0.060228	0.208040
C39	C	1.118765	-0.498207	-0.330619
C40	C	1.618765	0.001793	0.169381
C41	C	1.009042	-0.498218	-0.330625
C42	C	1.509042	0.001782	0.169375
C43	C	0.998394	-0.381357	-0.253307
C44	C	1.498394	0.118643	0.246693
C45	C	1.108113	-0.381343	-0.253306
C46	C	1.608113	0.118657	0.246694
C47	C	1.178949	-0.556637	-0.369273
C48	C	1.678949	-0.056637	0.130727
C49	C	1.129417	-0.615077	-0.407934
C50	C	1.629417	-0.115077	0.092066
C51	C	1.019695	-0.615088	-0.407941
C52	C	1.519695	-0.115088	0.092059
C53	C	0.959503	-0.556659	-0.369285
C54	C	1.459503	-0.056659	0.130715
C55	C	1.621729	-0.637068	-0.252090
C56	C	2.121729	-0.137068	0.247910
C57	C	1.649066	-0.721477	-0.235061
C58	C	2.149066	-0.221477	0.264939
C59	C	1.350743	-1.048172	-0.421602
C60	C	1.850743	-0.548172	0.078398
C61	C	1.376437	-1.127481	-0.405576
C62	C	1.876437	-0.627481	0.094424
C63	C	1.531702	-1.107834	-0.308541
C64	C	2.031702	-0.607834	0.191459
C65	C	1.506024	-1.028521	-0.324562
C66	C	2.006024	-0.528521	0.175438
C67	C	1.415542	-0.998697	-0.381092
C68	C	1.915542	-0.498697	0.118908
C69	C	1.570823	-0.979046	-0.284052
C70	C	2.070823	-0.479046	0.215948
C71	C	1.545144	-0.899740	-0.300068
C72	C	2.045144	-0.399740	0.199932
C73	C	1.454665	-0.869909	-0.356594
C74	C	1.954665	-0.369909	0.143406
C75	C	1.389863	-0.919390	-0.397108
C76	C	1.889863	-0.419390	0.102892
C77	C	1.661300	-1.008871	-0.227518
C78	C	2.161300	-0.508871	0.272482
C79	C	1.726099	-0.959396	-0.187008
C80	C	2.226099	-0.459396	0.312992
C81	C	1.700425	-0.880089	-0.203028
C82	C	2.200425	-0.380089	0.296972
C83	C	1.609946	-0.850258	-0.259554
C84	C	2.109946	-0.350258	0.240446
C85	C	1.765226	-0.830607	-0.162514
C86	C	2.265226	-0.330607	0.337486
C87	C	1.739547	-0.751301	-0.178531
C88	C	2.239547	-0.251301	0.321469
C89	C	1.584266	-0.770952	-0.275571
C90	C	2.084266	-0.270952	0.224429
C91	C	1.832078	-0.439790	-0.291964
C92	C	2.332078	0.060210	0.208036
C93	C	1.948856	-0.439797	-0.291967
C94	C	2.448856	0.060203	0.208033
C95	C	1.515582	-0.479764	-0.490041
C96	C	2.015582	0.020236	0.009959
C97	C	1.497488	-0.496806	-0.574454
C98	C	1.997488	0.003194	-0.074454
C99	C	1.494131	-0.241712	-0.331994
C100	C	1.994131	0.258288	0.168006
C101	C	1.466896	-0.157310	-0.349056
C102	C	1.966896	0.342690	0.150944
C103	C	1.420471	-0.569380	-0.683612
C104	C	1.920471	-0.069380	-0.183612
C105	C	1.437479	-0.553360	-0.604295
C106	C	1.937479	-0.053360	-0.104295
C107	C	1.540518	-0.456251	-0.623924
C108	C	2.040518	0.043749	-0.123924
C109	C	1.523524	-0.472264	-0.703243
C110	C	2.023524	0.027736	-0.203243
C111	C	1.463498	-0.528829	-0.733081
C112	C	1.963498	-0.028829	-0.233081
C113	C	1.566551	-0.431714	-0.752712
C114	C	2.066551	0.068286	-0.252712
C115	C	1.549552	-0.447724	-0.832026
C116	C	2.049552	0.052276	-0.332026
C117	C	1.489527	-0.504284	-0.861870
C118	C	1.989527	-0.004284	-0.361870
C119	C	1.446500	-0.544839	-0.812395
C120	C	1.946500	-0.044839	-0.312395
C121	C	1.626569	-0.375146	-0.722874
C122	C	2.126569	0.124854	-0.222874
C123	C	1.669596	-0.334595	-0.772343
C124	C	2.169596	0.165405	-0.272343
C125	C	1.652605	-0.350608	-0.851657
C126	C	2.152605	0.149392	-0.351657
C127	C	1.592580	-0.407169	-0.881501
C128	C	2.092580	0.092831	-0.381501
C129	C	1.695632	-0.310053	-0.901132
C130	C	2.195632	0.189947	-0.401132
C131	C	1.678634	-0.326063	-0.980446
C132	C	2.178634	0.173937	-0.480446
C133	C	1.575581	-0.423178	-0.960814
C134	C	2.075581	0.076822	-0.460814
C135	C	1.600380	-0.399883	-0.094652
C136	C	2.100380	0.100117	0.405348
C137	C	1.618608	-0.382628	-0.010283
C138	C	2.118608	0.117372	0.489717
H139	H	1.510594	-0.746669	-0.321609
H140	H	2.010594	-0.246669	0.178391
C141	C	1.354446	-0.631608	-0.716437
C142	C	1.854446	-0.131608	-0.216437
N143	N	1.304717	-0.678475	-0.741162
N144	N	1.804717	-0.178475	-0.241162
H145	H	1.178429	-0.662643	-0.439412
H146	H	1.678429	-0.162643	0.060588
H147	H	1.475679	-0.517313	-0.926454
H148	H	1.975679	-0.017313	-0.426454
C149	C	1.380475	-0.607067	-0.845219
C150	C	1.880475	-0.107067	-0.345219
N151	N	1.330745	-0.653934	-0.869944
N152	N	1.830745	-0.153934	-0.369944
H153	H	1.713664	-0.293039	-1.020725
H154	H	2.213664	0.206961	-0.520725
H155	H	1.316190	-0.895108	-0.443147
H156	H	1.816190	-0.395108	0.056853
C157	C	1.390150	-0.597980	-0.549880
C158	C	1.890150	-0.097980	-0.049880
N159	N	1.354504	-0.631587	-0.508894
N160	N	1.854504	-0.131587	-0.008894
H161	H	1.589388	-0.410194	-0.599619
H162	H	2.089388	0.089806	-0.099619
C163	C	0.838804	-0.556675	-0.369295
C164	C	1.338804	-0.056675	0.130705
N165	N	0.747897	-0.556690	-0.369299
N166	N	1.247897	-0.056690	0.130701
C167	C	1.645271	-0.357538	-0.635625
C168	C	2.145271	0.142462	-0.135625
N169	N	1.659359	-0.344279	-0.569909
N170	N	2.159359	0.155721	-0.069909
H171	H	1.718466	-0.288538	-0.748038
H172	H	2.218466	0.211462	-0.248038
H173	H	0.979366	-0.662668	-0.439427
H174	H	1.479366	-0.162668	0.060573
C175	C	1.761649	-0.247829	-0.868300
C176	C	2.261649	0.252171	-0.368300
N177	N	1.811373	-0.200960	-0.843571
N178	N	2.311373	0.299040	-0.343571
H179	H	1.838890	-0.854902	-0.116482
H180	H	2.338890	-0.354902	0.383518
C181	C	1.631225	-1.140649	-0.246356
C182	C	2.131225	-0.640649	0.253644
N183	N	1.706188	-1.165366	-0.199518
N184	N	2.206188	-0.665366	0.300482
C185	C	0.932182	-0.317093	-0.210784
C186	C	1.432182	0.182907	0.289216
N187	N	0.882313	-0.268691	-0.178752
N188	N	1.382313	0.231309	0.321248
C189	C	1.426417	-0.782669	-0.374213
C190	C	1.926417	-0.282669	0.125787
N191	N	1.405143	-0.716960	-0.387485
N192	N	1.905143	-0.216960	0.112515
C193	C	1.162603	-0.317063	-0.210775
C194	C	1.662603	0.182937	0.289225
N195	N	1.203644	-0.268646	-0.178742
N196	N	1.703644	0.231354	0.321258
C197	C	1.299656	-0.556644	-0.369247
C198	C	1.799656	-0.056644	0.130753
N199	N	1.390577	-0.556655	-0.369218
N200	N	1.890577	-0.056655	0.130782
C201	C	1.509556	-0.485406	-0.993639
C202	C	2.009556	0.014594	-0.493639
N203	N	1.459827	-0.532273	-1.018364
N204	N	1.959827	-0.032273	-0.518364
H205	H	1.799766	-0.983690	-0.140979
H206	H	2.299766	-0.483690	0.359021
C207	C	1.251197	-1.015359	-0.483778
C208	C	1.751197	-0.515359	0.016222
N209	N	1.176215	-0.990642	-0.530601
N210	N	1.676215	-0.490642	-0.030601
H211	H	1.682207	-1.073448	-0.214481
H212	H	2.182207	-0.573448	0.285519
C213	C	1.305149	-1.181904	-0.450149
C214	C	1.805149	-0.681904	0.049851
N215	N	1.251456	-1.222894	-0.483720
N216	N	1.751456	-0.722894	0.016280
C217	C	1.810837	-0.696876	-0.133974
C218	C	2.310837	-0.196876	0.366026
N219	N	1.864535	-0.655884	-0.100413
N220	N	2.364535	-0.155884	0.399587
