data_functionalizedCrystal
_audit_creation_method	'MofGen! by Chris Wilmer'
_symmetry_space_group_name_H-M	'P1'
_symmetry_Int_Tables_number	1
_symmetry_cell_setting	triclinic
loop_
_symmetry_equiv_pos_as_xyz
  x,y,z
_cell_length_a	12.837943
_cell_length_b	14.044220
_cell_length_c	11.892095
_cell_angle_alpha	94.243827
_cell_angle_beta	85.689438
_cell_angle_gamma	94.008909
loop_
_atom_site_label
_atom_site_type_symbol
_atom_site_fract_x
_atom_site_fract_y
_atom_site_fract_z
O1	O	1.404549	0.242985	-0.093990
O2	O	1.904549	0.742985	0.406010
O3	O	1.101609	0.230709	-0.093996
O4	O	1.601609	0.730709	0.406004
O5	O	1.248531	0.098452	-0.093982
O6	O	1.748531	0.598452	0.406018
O7	O	1.257627	0.375241	-0.094004
O8	O	1.757627	0.875241	0.405996
O9	O	1.236280	0.109461	0.094025
O10	O	1.736280	0.609461	0.594025
O11	O	1.089357	0.241718	0.094010
O12	O	1.589357	0.741718	0.594010
O13	O	1.392297	0.253993	0.094017
O14	O	1.892297	0.753993	0.594017
Zn15	Zn	1.238882	0.249603	0.123864
Zn16	Zn	1.738882	0.749603	0.623864
Zn17	Zn	1.255024	0.235099	-0.123843
Zn18	Zn	1.755024	0.735099	0.376157
O19	O	1.245375	0.386250	0.094002
O20	O	1.745375	0.886250	0.594002
C21	C	1.056479	0.232067	0.000007
C22	C	1.556479	0.732067	0.500007
C23	C	0.940259	0.219699	0.000005
C24	C	1.440259	0.719699	0.500005
C25	C	0.713048	0.368378	0.000009
C26	C	1.213048	0.868378	0.500009
C27	C	0.603848	0.356763	0.000008
C28	C	1.103848	0.856763	0.500008
C29	C	0.612657	0.184853	0.000009
C30	C	1.112657	0.684853	0.500009
C31	C	0.721856	0.196469	0.000011
C32	C	1.221856	0.696469	0.500011
C33	C	0.772048	0.288234	0.000008
C34	C	1.272048	0.788234	0.500008
C35	C	0.881251	0.299849	0.000001
C36	C	1.381251	0.799849	0.500001
C37	C	0.890056	0.127940	0.000011
C38	C	1.390056	0.627940	0.500011
C39	C	0.780857	0.116324	0.000010
C40	C	1.280857	0.616324	0.500010
C41	C	1.238425	0.068282	0.000022
C42	C	1.738425	0.568282	0.500022
C43	C	1.226550	-0.038016	0.000023
C44	C	1.726550	0.461984	0.500023
C45	C	1.204843	-0.232639	0.000006
C46	C	1.704843	0.267361	0.500006
C47	C	1.289060	-0.282665	0.000005
C48	C	1.789060	0.217335	0.500005
C49	C	1.276982	-0.390960	-0.000005
C50	C	1.776982	0.109040	0.499995
C51	C	1.216919	-0.124334	0.000016
C52	C	1.716919	0.375666	0.500016
C53	C	1.437428	0.252635	0.000012
C54	C	1.937428	0.752635	0.500012
C55	C	1.553649	0.265002	0.000006
C56	C	2.053649	0.765002	0.500006
C57	C	1.255482	0.416420	-0.000004
C58	C	1.755482	0.916420	0.499996
C59	C	1.267357	0.522717	-0.000012
C60	C	1.767357	1.022717	0.499988
N61	N	1.227873	0.259502	0.292917
N62	N	1.727873	0.759502	0.792917
N63	N	1.266041	0.225193	-0.292896
N64	N	1.766041	0.725193	0.207104
C65	C	1.342643	0.156258	0.529576
C66	C	1.842643	0.656258	1.029576
C67	C	1.334956	0.163185	0.647917
C68	C	1.834956	0.663185	1.147917
C69	C	1.204807	0.280277	0.647942
C70	C	1.704807	0.780277	1.147942
C71	C	1.212494	0.273350	0.529601
C72	C	1.712494	0.773350	1.029601
C73	C	1.281415	0.211340	0.470422
C74	C	1.781415	0.711340	0.970422
C75	C	1.289107	0.204418	0.352079
C76	C	1.789107	0.704418	0.852079
C77	C	1.158954	0.321505	0.352106
C78	C	1.658954	0.821505	0.852106
C79	C	1.151267	0.328432	0.470447
C80	C	1.651267	0.828432	0.970447
H81	H	0.555814	0.422025	0.000011
H82	H	1.055814	0.922025	0.500011
H83	H	1.345229	0.153929	0.303896
H84	H	1.845229	0.653929	0.803896
O85	O	0.947490	0.050144	-0.000141
O86	O	1.447490	0.550144	0.499859
C87	C	1.017239	0.046010	-0.097530
C88	C	1.517239	0.546010	0.402470
H89	H	1.031891	0.120480	-0.129990
H90	H	1.531891	0.620480	0.370010
H91	H	1.094466	0.019077	-0.075639
H92	H	1.594466	0.519077	0.424361
H93	H	0.981762	-0.004868	-0.165712
H94	H	1.481762	0.495132	0.334288
H95	H	0.571765	0.110147	0.000104
H96	H	1.071765	0.610147	0.500104
O97	O	1.084232	0.388679	0.527763
O98	O	1.584232	0.888679	1.027763
C99	C	1.031860	0.435829	0.450171
C100	C	1.531860	0.935829	0.950171
H101	H	1.032539	0.391598	0.365814
H102	H	1.532539	0.891598	0.865814
H103	H	0.947502	0.444832	0.484378
H104	H	1.447502	0.944832	0.984378
H105	H	1.073186	0.509184	0.437580
H106	H	1.573186	1.009184	0.937580
H107	H	1.109101	0.366359	0.303930
H108	H	1.609101	0.866359	0.803930
H109	H	0.739974	0.041612	0.000025
H110	H	1.239974	0.541612	0.500025
O111	O	1.137796	0.340375	0.705570
O112	O	1.637796	0.840375	1.205570
C113	C	1.064115	0.287317	0.774011
C114	C	1.564115	0.787317	1.274011
H115	H	1.097688	0.217335	0.791714
H116	H	1.597688	0.717335	1.291714
H117	H	1.045863	0.330569	0.857241
H118	H	1.545863	0.830569	1.357241
H119	H	0.989215	0.271143	0.728424
H120	H	1.489215	0.771143	1.228424
O121	O	1.385979	-0.236892	-0.000027
O122	O	1.885979	0.263108	0.499973
C123	C	1.461908	-0.304733	0.000007
C124	C	1.961908	0.195267	0.500007
H125	H	1.428790	-0.377233	-0.035603
H126	H	1.928790	0.122767	0.464397
H127	H	1.534525	-0.280918	-0.054559
H128	H	2.034525	0.219082	0.445441
H129	H	1.483810	-0.310905	0.090207
H130	H	1.983810	0.189095	0.590207
O131	O	1.108001	-0.278533	-0.000193
O132	O	1.608001	0.221467	0.499807
C133	C	1.059706	-0.258189	-0.097543
C134	C	1.559706	0.241811	0.402457
H135	H	1.122266	-0.236258	-0.165603
H136	H	1.622266	0.263742	0.334397
H137	H	1.011890	-0.324585	-0.130226
H138	H	1.511890	0.175415	0.369774
H139	H	1.005910	-0.197274	-0.075521
H140	H	1.505910	0.302726	0.424479
H141	H	1.398769	0.105774	0.481391
H142	H	1.898769	0.605774	0.981391
O143	O	1.394540	0.109641	0.705204
O144	O	1.894540	0.609641	1.205204
C145	C	1.456994	0.053407	0.627589
C146	C	1.956994	0.553407	1.127589
H147	H	1.467282	0.087768	0.543230
H148	H	1.967282	0.587768	1.043230
H149	H	1.536906	0.048399	0.661764
H150	H	2.036906	0.548399	1.161764
H151	H	1.417297	-0.021418	0.615012
H152	H	1.917297	0.478582	1.115012
H153	H	0.922115	0.374569	0.000002
H154	H	1.422115	0.874569	0.500002
H155	H	0.753915	0.443098	0.000005
H156	H	1.253915	0.943098	0.500005
