data_functionalizedCrystal
_audit_creation_method	'MofGen! by Chris Wilmer'
_symmetry_space_group_name_H-M	'P1'
_symmetry_Int_Tables_number	1
_symmetry_cell_setting	triclinic
loop_
_symmetry_equiv_pos_as_xyz
  x,y,z
_cell_length_a	16.959455
_cell_length_b	18.215405
_cell_length_c	18.215399
_cell_angle_alpha	90.027541
_cell_angle_beta	89.976715
_cell_angle_gamma	89.979087
loop_
_atom_site_label
_atom_site_type_symbol
_atom_site_fract_x
_atom_site_fract_y
_atom_site_fract_z
Zn1	Zn	-1.208402	-0.293027	0.416186
Zn2	Zn	-1.208309	-0.416099	0.293120
Zn3	Zn	-1.076221	-0.293047	0.293126
Zn4	Zn	-1.076189	-0.416053	0.416138
O5	O	-1.142280	-0.354556	0.354642
O6	O	-1.319001	-0.309364	0.399879
O7	O	-1.190761	-0.399803	0.190137
O8	O	-1.093807	-0.190060	0.309472
O9	O	-1.318932	-0.399784	0.309463
O10	O	-1.190921	-0.190046	0.399884
O11	O	-1.093717	-0.309397	0.190141
O12	O	-0.965606	-0.309353	0.309426
O13	O	-1.093753	-0.399706	0.519128
O14	O	-0.965583	-0.399725	0.399802
O15	O	-1.190890	-0.309320	0.519164
O16	O	-1.190731	-0.519077	0.309417
O17	O	-1.093663	-0.519043	0.399797
C18	C	-0.936914	-0.354536	0.354610
C19	C	-0.849057	-0.354545	0.354613
C20	C	-0.807772	-0.307425	0.307632
C21	C	-0.807789	-0.401670	0.401602
C22	C	-0.725243	-0.401678	0.401610
C23	C	-0.683958	-0.354557	0.354629
C24	C	-0.725219	-0.307430	0.307640
C25	C	-0.683977	-0.448799	0.448603
C26	C	-0.601426	-0.448808	0.448613
C27	C	-0.560139	-0.401691	0.401628
C28	C	-0.601405	-0.354562	0.354637
C29	C	-0.560119	-0.307441	0.307655
C30	C	-0.601383	-0.260316	0.260660
C31	C	-0.683932	-0.260312	0.260655
C32	C	-0.477590	-0.401694	0.401633
C33	C	-0.477566	-0.307446	0.307663
C34	C	-1.142205	-0.545763	0.354617
C35	C	-1.142245	-0.627562	0.354631
C36	C	-1.142329	-0.354506	0.546595
C37	C	-1.142349	-0.354484	0.628394
C38	C	-0.348449	-0.354574	0.354666
C39	C	-0.436305	-0.354574	0.354652
C40	C	-1.192835	-0.815687	0.401772
C41	C	-1.192864	-0.892546	0.401786
C42	C	-1.091823	-0.892674	0.307559
C43	C	-1.091791	-0.815816	0.307549
C44	C	-1.142302	-0.777325	0.354655
C45	C	-1.142362	-0.931041	0.354678
C46	C	-1.142393	-1.014375	0.354693
C47	C	-1.142270	-0.693986	0.354641
C48	C	-1.142378	-0.162604	0.354684
C49	C	-1.142420	-0.080805	0.354702
C50	C	-1.142278	-0.354554	0.163436
C51	C	-1.142411	-0.354368	0.081638
C52	C	-1.192946	-0.307376	0.816608
C53	C	-1.192956	-0.307355	0.893467
C54	C	-1.091808	-0.401478	0.893419
C55	C	-1.091795	-0.401496	0.816561
C56	C	-1.142369	-0.354445	0.778158
C57	C	-1.142391	-0.354407	0.931874
C58	C	-1.142401	-0.354384	1.015208
C59	C	-1.142358	-0.354467	0.694819
H60	H	-0.567758	-0.221947	0.222412
Br61	Br	-1.023142	-0.465374	0.764374
H62	H	-0.841373	-0.269058	0.269368
Br63	Br	-0.421542	-0.243499	0.243894
H64	H	-1.233963	-0.784349	0.440129
Br65	Br	-0.739937	-0.196359	0.196884
Br66	Br	-1.023274	-0.944916	0.243635
Br67	Br	-1.261580	-0.243521	0.764491
Br68	Br	-0.863819	-0.465621	0.465354
Br69	Br	-0.740009	-0.512757	0.512345
Br70	Br	-1.023196	-0.763749	0.243607
H71	H	-1.050634	-0.439787	0.924696
Br72	Br	-0.545431	-0.512764	0.512389
Br73	Br	-0.421592	-0.465638	0.465414
H74	H	-1.234012	-0.923777	0.440155
H75	H	-1.234139	-0.269025	0.924769
