data_functionalizedCrystal
_audit_creation_method	'MofGen! by Chris Wilmer'
_symmetry_space_group_name_H-M	'P1'
_symmetry_Int_Tables_number	1
_symmetry_cell_setting	triclinic
loop_
_symmetry_equiv_pos_as_xyz
  x,y,z
_cell_length_a	23.096457
_cell_length_b	18.426585
_cell_length_c	23.096457
_cell_angle_alpha	90.015192
_cell_angle_beta	60.008701
_cell_angle_gamma	60.000349
loop_
_atom_site_label
_atom_site_type_symbol
_atom_site_fract_x
_atom_site_fract_y
_atom_site_fract_z
Zr1	Zr	0.633707	0.699138	-0.075923
O2	O	0.754498	0.583233	-0.168373
O3	O	0.512919	0.734666	-0.047586
O4	O	0.633707	0.734634	-0.168372
O5	O	0.633709	0.583293	0.047694
O6	O	0.633703	0.854065	-0.168366
O7	O	0.633710	0.583265	-0.047588
O8	O	0.417636	0.854123	0.047698
O9	O	0.849776	0.583236	-0.168369
O10	O	0.562597	0.838952	-0.035492
O11	O	0.562598	0.749843	0.035612
O12	O	0.704810	0.749805	-0.106598
O13	O	0.704812	0.660696	-0.035494
Zr14	Zr	0.633698	0.889662	0.076049
Zr15	Zr	0.633700	0.889616	-0.075915
Zr16	Zr	0.633704	0.699183	0.076041
Zr17	Zr	0.785664	0.699143	-0.075917
Zr18	Zr	0.481740	0.889657	0.076043
O19	O	0.754485	0.854133	0.047712
O20	O	0.754489	0.854069	-0.168361
O21	O	0.754494	0.583297	0.047699
O22	O	0.512907	1.005567	0.168499
O23	O	0.512910	1.005502	-0.047574
O24	O	0.512916	0.734731	0.168487
O25	O	0.633696	1.005506	-0.047568
O26	O	0.633697	0.854165	0.168498
O27	O	0.633702	0.734734	0.168492
O28	O	0.633694	1.005534	0.047714
O29	O	0.849771	0.734641	-0.168363
O30	O	0.417634	0.854159	0.168488
O31	O	0.417629	1.005564	0.168495
O32	O	0.417631	1.005528	0.047704
O33	O	0.849774	0.583272	-0.047579
O34	O	0.849769	0.734677	-0.047572
O35	O	0.562594	0.838994	0.106724
O36	O	0.562592	0.928103	0.035620
O37	O	0.704806	0.838956	-0.035486
O38	O	0.704808	0.749848	0.035618
C39	C	0.633710	0.556140	0.000052
C40	C	0.633713	0.475277	0.000048
C41	C	0.443627	0.794394	0.000055
C42	C	0.379117	0.794392	0.000052
C43	C	0.633716	0.409606	0.000049
C44	C	0.633713	0.327225	0.000055
C45	C	0.633704	0.261567	0.000063
C46	C	0.633700	0.179180	0.000069
C47	C	0.348815	0.840900	-0.037066
C48	C	0.288193	0.840908	-0.037060
C49	C	0.257886	0.794392	0.000054
C50	C	0.288192	0.747882	0.037180
C51	C	0.348808	0.747882	0.037179
N52	N	0.195493	0.718675	-0.005096
N53	N	0.137913	0.718677	-0.005099
C54	C	0.075254	0.794391	0.000061
N55	N	0.072359	0.870101	0.005210
N56	N	0.129948	0.870098	0.005209
C57	C	0.192159	0.794387	0.000060
C58	C	-0.020782	0.840912	-0.037053
C59	C	-0.081409	0.840924	-0.037042
C60	C	-0.081403	0.747889	0.037194
C61	C	-0.020783	0.747886	0.037188
C62	C	0.009527	0.794396	0.000060
C63	C	0.823778	0.794406	0.000071
C64	C	0.888288	0.794408	0.000074
C65	C	0.633706	0.794343	-0.190021
C66	C	0.633707	0.794324	-0.254533
C67	C	0.633694	1.032659	0.000074
C68	C	0.633692	1.113523	0.000077
C69	C	0.707939	0.747795	-0.321953
C70	C	0.707940	0.747817	-0.382570
C71	C	0.633705	0.794357	-0.375762
C72	C	0.559463	0.840897	-0.308330
C73	C	0.559464	0.840880	-0.247715
N74	N	0.578449	0.787935	-0.443320
N75	N	0.578453	0.787946	-0.500904
C76	C	0.633697	0.794412	-0.558387
N77	N	0.688950	0.800849	-0.556118
N78	N	0.688948	0.800833	-0.498530
C79	C	0.633695	0.794381	-0.441484
C80	C	0.707936	0.747905	-0.691537
C81	C	0.707934	0.747934	-0.752153
C82	C	0.559455	0.841007	-0.677911
C83	C	0.559459	0.840984	-0.617297
C84	C	0.633702	0.794428	-0.624115
C85	C	0.633699	0.794456	0.190146
C86	C	0.633698	0.794476	0.254659
C87	C	0.443619	1.032653	0.000066
C88	C	0.379106	1.113514	0.000067
C89	C	0.443624	0.794450	0.190138
C90	C	0.379113	0.794468	0.254648
C91	C	0.443616	1.032710	0.190149
C92	C	0.379102	1.113590	0.254663
C93	C	0.823789	0.556090	-0.190023
C94	C	0.888303	0.475209	-0.254537
C95	C	0.823786	0.556146	0.000060
C96	C	0.888298	0.475285	0.000059
C97	C	0.823781	0.794349	-0.190013
C98	C	0.888292	0.794332	-0.254522
C99	C	0.348813	1.104952	-0.037059
C100	C	0.288204	1.180922	-0.037072
C101	C	0.257887	1.265454	0.000045
C102	C	0.288187	1.274015	0.037171
C103	C	0.348798	1.198046	0.037180
C104	C	0.348815	0.841012	0.322069
C105	C	0.288209	0.841024	0.382689
C106	C	0.257897	0.794498	0.375886
C107	C	0.288200	0.747948	0.308458
C108	C	0.348809	0.747931	0.247840
C109	C	0.348805	1.198094	0.247844
C110	C	0.288196	1.274097	0.308455
C111	C	0.257881	1.265594	0.375885
C112	C	0.288184	1.181081	0.382703
C113	C	0.348796	1.105080	0.322092
C114	C	0.918607	0.390705	-0.247718
C115	C	0.979235	0.314702	-0.308329
C116	C	1.009553	0.323205	-0.375759
C117	C	0.979246	0.407718	-0.382577
C118	C	0.918623	0.483719	-0.321966
C119	C	0.918598	0.483848	0.037178
C120	C	0.979223	0.407878	0.037175
C121	C	1.009543	0.323345	0.000056
C122	C	0.979240	0.314784	-0.037068
C123	C	0.918621	0.390754	-0.037068
C124	C	0.918585	0.840868	-0.247697
C125	C	0.979192	0.840869	-0.308305
C126	C	1.009509	0.794329	-0.375738
C127	C	0.979210	0.747792	-0.382562
C128	C	0.918600	0.747796	-0.321954
H129	H	0.373489	0.878773	-0.067295
O130	O	0.888999	0.886148	-0.182160
C131	C	0.804067	0.951465	-0.144885
H132	H	0.778363	0.931894	-0.168032
H133	H	0.772659	0.957119	-0.086551
H134	H	0.792499	1.018198	-0.149931
H135	H	0.499020	0.878791	-0.302790
O136	O	0.198902	1.339220	0.000118
C137	C	0.128798	1.339057	0.029607
H138	H	0.128874	1.296110	0.065124
H139	H	0.071495	1.409937	0.062336
H140	H	0.129334	1.310993	-0.014791
O141	O	0.258613	1.356199	0.073218
C142	C	0.198633	1.421405	0.065231
H143	H	0.172145	1.391770	0.051550
H144	H	0.147622	1.480011	0.116893
H145	H	0.227628	1.445162	0.020795
H146	H	0.263543	0.878934	0.437585
H147	H	1.003885	0.414865	0.067408
H148	H	0.208526	1.327486	0.425233
O149	O	1.008656	0.702710	-0.448106
C150	C	0.993828	0.762434	-0.485380
H151	H	0.986258	0.823688	-0.462215
H152	H	1.047682	0.728677	-0.543710
H153	H	0.935559	0.783233	-0.480358
H154	H	0.893917	0.552671	0.067410
H155	H	0.893926	0.383765	-0.192818
O156	O	1.008559	0.886083	-0.301541
C157	C	0.968794	0.927164	-0.229026
H158	H	0.943823	0.890668	-0.196717
H159	H	1.014261	0.924657	-0.220569
H160	H	0.916144	0.999383	-0.211153
H161	H	0.003894	0.878787	-0.067282
O162	O	0.378351	1.206295	0.182322
C163	C	0.463282	1.165162	0.145011
H164	H	0.489037	1.113353	0.168111
H165	H	0.494657	1.131461	0.086674
H166	H	0.474831	1.217411	0.150075
H167	H	0.373480	0.710007	0.067405
H168	H	0.263493	1.174171	0.437613
H169	H	0.373456	1.036276	0.327654
O170	O	1.068533	0.249529	-0.000063
C171	C	1.138657	0.198592	-0.070296
H172	H	1.138577	0.243180	-0.104504
H173	H	1.195943	0.167834	-0.071037
H174	H	1.138156	0.143574	-0.092137
H175	H	0.768393	0.709889	-0.327511
H176	H	0.263516	0.878782	-0.067287
H177	H	0.893952	0.383769	-0.067293
H178	H	0.499011	0.878869	-0.562399
H179	H	1.003939	0.414631	-0.437486
O180	O	-0.110859	0.886235	-0.073049
C181	C	-0.145931	0.977063	-0.045751
H182	H	-0.118545	0.984681	-0.018571
H183	H	-0.132637	1.005546	-0.090927
H184	H	-0.214970	1.014406	-0.005681
H185	H	1.003936	0.245948	-0.067289
O186	O	0.889299	0.702502	-0.328716
C187	C	0.929047	0.661444	-0.401232
H188	H	0.990476	0.652246	-0.433545
H189	H	0.939514	0.593848	-0.409697
H190	H	0.889295	0.705035	-0.419092
H191	H	1.058861	0.794332	-0.425083
O192	O	0.487415	0.886140	-0.671416
C193	C	0.503331	0.876114	-0.739373
H194	H	0.567116	0.813237	-0.779536
H195	H	0.455896	0.870809	-0.738678
H196	H	0.499850	0.936189	-0.754858
H197	H	1.003901	0.245896	-0.302764
H198	H	0.893950	0.552524	-0.327527
H199	H	0.373489	0.878899	0.327621
H200	H	0.263512	0.710009	0.067400
O201	O	0.378343	0.702740	0.182296
C202	C	0.438322	0.712715	0.130243
H203	H	0.464851	0.729845	0.153847
H204	H	0.489304	0.647946	0.083496
H205	H	0.409312	0.768417	0.111293
H206	H	-0.106078	0.710014	0.067413
H207	H	0.003892	0.710011	0.067410
O208	O	0.780103	0.702678	-0.448034
C209	C	0.825266	0.736882	-0.455797
H210	H	0.804166	0.770942	-0.401228
H211	H	0.893178	0.680243	-0.487689
H212	H	0.814974	0.787115	-0.484750
O213	O	1.068413	0.249282	-0.434560
C214	C	1.088666	0.172877	-0.414073
H215	H	1.035497	0.190348	-0.358122
H216	H	1.101261	0.119200	-0.452363
H217	H	1.145615	0.147299	-0.415169
O218	O	0.378195	1.206261	0.073309
C219	C	0.363349	1.165146	0.125422
H220	H	0.355825	1.113347	0.109811
H221	H	0.417171	1.131434	0.129941
H222	H	0.305048	1.217407	0.178653
H223	H	0.263511	0.710067	0.302930
H224	H	0.208545	0.794519	0.425251
H225	H	0.499013	0.878770	-0.192817
O226	O	0.258825	1.356119	0.301697
C227	C	0.298590	1.347317	0.229183
H228	H	0.323562	1.279503	0.196869
H229	H	0.253122	1.401798	0.220729
H230	H	0.351239	1.353533	0.211314
H231	H	0.768389	0.709997	-0.697089
H232	H	0.768385	0.710048	-0.807052
H233	H	0.373496	1.036128	-0.067293
H234	H	0.263542	1.173934	-0.067305
