data_functionalizedCrystal
_audit_creation_method	'MofGen! by Chris Wilmer'
_symmetry_space_group_name_H-M	'P1'
_symmetry_Int_Tables_number	1
_symmetry_cell_setting	triclinic
loop_
_symmetry_equiv_pos_as_xyz
  x,y,z
_cell_length_a	9.482900
_cell_length_b	10.654550
_cell_length_c	10.654550
_cell_angle_alpha	84.484931
_cell_angle_beta	99.425346
_cell_angle_gamma	80.622550
loop_
_atom_site_label
_atom_site_type_symbol
_atom_site_fract_x
_atom_site_fract_y
_atom_site_fract_z
O1	O	0.120785	-1.687227	-0.156923
O2	O	0.120812	-1.321753	-0.173724
O3	O	0.120788	-1.512891	0.017414
O4	O	0.120808	-1.496088	-0.348061
O5	O	-0.120999	-1.474068	-0.021568
O6	O	-0.120976	-1.282930	-0.212706
O7	O	-0.121003	-1.648404	-0.195904
Cu8	Cu	-0.143067	-1.462122	-0.207865
Cu9	Cu	0.142875	-1.508035	-0.161764
O10	O	-0.120980	-1.457265	-0.387043
C11	C	-0.000079	-1.255544	-0.191981
C12	C	-0.000069	-1.116102	-0.188287
N13	N	-0.344183	-1.429838	-0.240289
C14	C	-0.000105	-1.492246	0.044721
C15	C	-0.000102	-1.488554	0.184165
C16	C	-0.416390	-1.498504	-0.171321
C17	C	-0.583805	-1.471653	-0.198308
N18	N	0.343992	-1.540328	-0.129331
C19	C	-0.000109	-1.714613	-0.177648
C20	C	-0.000110	-1.854056	-0.181340
C21	C	-0.000067	-1.036617	-0.300829
C22	C	-0.000093	-0.905592	-0.297356
C23	C	-0.000116	-0.933551	-0.068790
C24	C	-0.000101	-1.064572	-0.072266
C25	C	-0.000084	-1.477911	-0.414350
C26	C	-0.000077	-1.481604	-0.553792
C27	C	-0.000110	-1.601095	0.263649
C28	C	-0.000092	-1.597621	0.394673
C29	C	-0.000065	-1.369056	0.366714
C30	C	-0.000072	-1.372533	0.235695
H31	H	-0.354272	-1.577165	-0.092291
H32	H	-0.000150	-0.891578	0.025669
C33	C	-0.124427	-1.717657	0.112508
C34	C	-0.000127	-1.728628	0.207012
H35	H	-0.124435	-1.796398	0.077554
H36	H	-0.124417	-1.651143	0.046420
H37	H	-0.208731	-1.698011	0.149466
H38	H	0.084177	-1.748265	0.170051
H39	H	-0.000125	-1.795163	0.273111
C40	C	-0.000108	-1.079063	0.154023
C41	C	-0.000096	-1.151955	0.051451
H42	H	-0.000100	-1.133012	0.230395
H43	H	-0.084425	-1.013855	0.137034
H44	H	0.084209	-1.040903	0.164215
H45	H	-0.084420	-1.190106	0.041253
H46	H	0.084229	-1.217185	0.068443
C47	C	-0.000065	-0.995812	-0.526408
C48	C	-0.000052	-1.093257	-0.428360
H49	H	-0.000068	-1.030778	-0.605143
H50	H	0.084241	-0.958821	-0.506707
H51	H	-0.084393	-0.931762	-0.533880
H52	H	0.084282	-1.157303	-0.420882
H53	H	-0.084367	-1.130268	-0.448065
H54	H	-0.000095	-1.689264	0.459385
H55	H	-0.000094	-0.840879	-0.388999
H56	H	-0.000043	-1.274594	0.408686
H57	H	-0.593893	-1.618995	-0.050296
C58	C	-0.630988	-1.247491	-0.278190
C59	C	-0.667649	-1.365444	-0.304993
H60	H	-0.682759	-1.181925	-0.344048
H61	H	-0.529495	-1.251610	-0.274061
H62	H	-0.655870	-1.228936	-0.198291
H63	H	-0.642757	-1.384004	-0.384889
H64	H	-0.769164	-1.361327	-0.309136
H65	H	-0.000062	-1.280884	0.170975
H66	H	-0.406303	-1.351168	-0.319309
