data_functionalizedCrystal
_audit_creation_method	'MofGen! by Chris Wilmer'
_symmetry_space_group_name_H-M	'P1'
_symmetry_Int_Tables_number	1
_symmetry_cell_setting	triclinic
loop_
_symmetry_equiv_pos_as_xyz
  x,y,z
_cell_length_a	19.188905
_cell_length_b	17.666332
_cell_length_c	17.038272
_cell_angle_alpha	89.993620
_cell_angle_beta	92.876944
_cell_angle_gamma	90.016479
loop_
_atom_site_label
_atom_site_type_symbol
_atom_site_fract_x
_atom_site_fract_y
_atom_site_fract_z
O1	O	0.932218	0.063075	-0.097499
O2	O	1.432218	0.563075	0.402501
O3	O	0.729722	0.063049	-0.110656
O4	O	1.229722	0.563049	0.389344
O5	O	0.829766	0.063056	0.009734
O6	O	1.329766	0.563056	0.509734
O7	O	0.832173	0.063068	-0.217889
O8	O	1.332173	0.563068	0.282111
O9	O	0.829747	-0.062841	0.009740
O10	O	1.329747	0.437159	0.509740
O11	O	0.729702	-0.062848	-0.110650
O12	O	1.229702	0.437152	0.389350
O13	O	0.932199	-0.062822	-0.097492
O14	O	1.432199	0.437178	0.402508
Cu15	Cu	0.830949	-0.074330	-0.104071
Cu16	Cu	1.330949	0.425670	0.395929
Cu17	Cu	0.830972	0.074557	-0.104078
Cu18	Cu	1.330972	0.574557	0.395922
O19	O	0.832154	-0.062829	-0.217883
O20	O	1.332154	0.437171	0.282117
C21	C	0.703674	0.000097	-0.110230
C22	C	1.203674	0.500097	0.389770
C23	C	0.626090	0.000087	-0.108961
C24	C	1.126090	0.500087	0.391039
N25	N	0.830938	-0.179050	-0.104065
N26	N	1.330938	0.320950	0.395935
C27	C	0.589671	0.068716	-0.108355
C28	C	1.089671	0.568716	0.391645
C29	C	0.516773	0.068725	-0.107154
C30	C	1.016773	0.568725	0.392846
C31	C	0.480297	0.000102	-0.106543
C32	C	0.980297	0.500102	0.393457
C33	C	0.516725	-0.068535	-0.107154
C34	C	1.016725	0.431465	0.392846
C35	C	0.589621	-0.068543	-0.108363
C36	C	1.089621	0.431457	0.391637
N37	N	0.368388	-0.050970	-0.060158
N38	N	0.868388	0.449030	0.439842
N39	N	0.299139	-0.050958	-0.059008
N40	N	0.799139	0.449042	0.440992
C41	C	0.260664	0.000120	-0.102901
C42	C	0.760664	0.500120	0.397099
N43	N	0.294055	0.051198	-0.147979
N44	N	0.794055	0.551198	0.352021
N45	N	0.363310	0.051188	-0.149126
N46	N	0.863310	0.551188	0.350874
C47	C	0.401253	0.000102	-0.105232
C48	C	0.901253	0.500102	0.394768
C49	C	0.145201	0.068763	-0.100994
C50	C	0.645201	0.568763	0.399006
C51	C	0.072301	0.068770	-0.099797
C52	C	0.572301	0.568770	0.400203
C53	C	0.072255	-0.068492	-0.099789
C54	C	0.572255	0.431508	0.400211
C55	C	0.145153	-0.068497	-0.100993
C56	C	0.645153	0.431503	0.399007
C57	C	0.181622	0.000133	-0.101592
C58	C	0.681622	0.500133	0.398408
C59	C	0.875255	-0.218656	-0.050782
C60	C	1.375255	0.281344	0.449218
C61	C	0.875259	-0.297904	-0.050778
C62	C	1.375259	0.202096	0.449222
C63	C	0.830953	-0.337542	-0.104071
C64	C	1.330953	0.162458	0.395929
C65	C	0.786628	-0.297926	-0.157358
C66	C	1.286628	0.202074	0.342642
C67	C	0.786620	-0.218679	-0.157355
C68	C	1.286620	0.281321	0.342645
N69	N	0.826176	-0.461957	-0.173269
N70	N	1.326176	0.038043	0.326731
N71	N	0.826187	-0.537238	-0.173270
N72	N	1.326187	-0.037238	0.326730
C73	C	0.830972	-0.576306	-0.104082
C74	C	1.330972	-0.076306	0.395918
N75	N	0.835759	-0.537249	-0.034891
N76	N	1.335759	-0.037249	0.465109
N77	N	0.835752	-0.461962	-0.034891
N78	N	1.335752	0.038038	0.465109
C79	C	0.830956	-0.423471	-0.104080
C80	C	1.330956	0.076529	0.395920
C81	C	0.875295	-0.701842	-0.050790
C82	C	1.375295	-0.201842	0.449210
C83	C	0.875294	-0.781091	-0.050785
C84	C	1.375294	-0.281091	0.449215
C85	C	0.786667	-0.781111	-0.157372
C86	C	1.286667	-0.281111	0.342628
C87	C	0.786665	-0.701863	-0.157370
C88	C	1.286665	-0.201863	0.342630
C89	C	0.830982	-0.662234	-0.104080
C90	C	1.330982	-0.162234	0.395920
C91	C	0.958246	0.000131	-0.097918
C92	C	1.458246	0.500131	0.402082
C93	C	1.035830	0.000146	-0.099188
C94	C	1.535830	0.500146	0.400812
C95	C	0.827568	0.000107	0.038858
C96	C	1.327568	0.500107	0.538858
C97	C	0.821036	0.000107	0.125630
C98	C	1.321036	0.500107	0.625630
N99	N	0.830988	0.179277	-0.104078
N100	N	1.330988	0.679277	0.395922
C101	C	0.834353	0.000122	-0.247007
C102	C	1.334353	0.500122	0.252993
C103	C	0.840884	0.000127	-0.333779
C104	C	1.340884	0.500127	0.166221
C105	C	0.881003	0.000113	0.175938
C106	C	1.381003	0.500113	0.675938
C107	C	0.874862	0.000120	0.257469
C108	C	1.374862	0.500120	0.757469
C109	C	0.808753	0.000114	0.288690
C110	C	1.308753	0.500114	0.788690
C111	C	0.748782	0.000109	0.238376
C112	C	1.248782	0.500109	0.738376
C113	C	0.754924	0.000108	0.156847
C114	C	1.254924	0.500108	0.656847
C115	C	0.787055	0.000122	0.534378
C116	C	1.287055	0.500122	1.034378
C117	C	0.780918	0.000120	0.615913
C118	C	1.280918	0.500120	1.115913
C119	C	0.906998	0.000132	0.635001
C120	C	1.406998	0.500132	1.135001
C121	C	0.913134	0.000127	0.553469
C122	C	1.413134	0.500127	1.053469
C123	C	0.853163	0.000126	0.503162
C124	C	1.353163	0.500126	1.003162
C125	C	0.802474	0.000118	0.372027
C126	C	1.302474	0.500118	0.872027
C127	C	0.859442	0.000127	0.419826
C128	C	1.359442	0.500127	0.919826
H129	H	0.619359	0.124600	-0.108842
H130	H	1.119359	0.624600	0.391158
Br131	Br	0.988383	0.000133	0.703277
Br132	Br	1.488383	0.500133	1.203277
H133	H	0.911380	-0.669574	-0.007396
H134	H	1.411380	-0.169574	0.492604
Br135	Br	0.726520	-0.648105	-0.229688
Br136	Br	1.226520	-0.148105	0.270312
Br137	Br	0.639051	-0.161688	-0.109187
Br138	Br	1.139051	0.338312	0.390813
H139	H	0.694954	0.000109	0.263803
H140	H	1.194954	0.500109	0.763803
Br141	Br	0.022872	0.161917	-0.098984
Br142	Br	0.522872	0.661917	0.401016
Br143	Br	0.935396	-0.164873	0.021540
Br144	Br	1.435396	0.335127	0.521540
Br145	Br	0.194583	-0.161641	-0.101814
Br146	Br	0.694583	0.338359	0.398186
Br147	Br	0.935407	-0.351666	0.021542
Br148	Br	1.435407	0.148334	0.521542
Br149	Br	0.726493	-0.351716	-0.229679
Br150	Br	1.226493	0.148284	0.270321
Br151	Br	0.673537	0.000105	0.088570
Br152	Br	1.173537	0.500105	0.588570
Br153	Br	0.726471	-0.164923	-0.229672
Br154	Br	1.226471	0.335077	0.270328
Br155	Br	0.935437	-0.834848	0.021539
Br156	Br	1.435437	-0.334848	0.521539
H157	H	0.738222	0.000121	0.493427
H158	H	1.238222	0.500121	0.993427
Br159	Br	0.726530	-0.834898	-0.229690
Br160	Br	1.226530	-0.334898	0.270310
Br161	Br	0.970726	0.000110	0.133574
Br162	Br	1.470726	0.500110	0.633574
H163	H	0.174894	0.124646	-0.101489
H164	H	0.674894	0.624646	0.398511
H165	H	0.923693	0.000124	0.298426
H166	H	1.423693	0.500124	0.798426
Br167	Br	0.691193	0.000105	0.658285
Br168	Br	1.191193	0.500105	1.158285
Br169	Br	1.002856	0.000159	0.511103
Br170	Br	1.502856	0.500159	1.011103
H171	H	0.042557	-0.124366	-0.099297
H172	H	0.542557	0.375634	0.400703
H173	H	0.913268	0.000149	0.394402
H174	H	1.413268	0.500149	0.894402
H175	H	0.487114	0.124612	-0.106661
H176	H	0.987114	0.624612	0.393339
Br177	Br	0.467224	-0.161667	-0.106333
Br178	Br	0.967224	0.338333	0.393667
Br179	Br	0.712757	0.000118	0.414406
Br180	Br	1.212757	0.500118	0.914406
