data_functionalizedCrystal
_audit_creation_method	'MofGen! by Chris Wilmer'
_symmetry_space_group_name_H-M	'P1'
_symmetry_Int_Tables_number	1
_symmetry_cell_setting	triclinic
loop_
_symmetry_equiv_pos_as_xyz
  x,y,z
_cell_length_a	16.109301
_cell_length_b	10.654549
_cell_length_c	9.730223
_cell_angle_alpha	90.002269
_cell_angle_beta	90.000239
_cell_angle_gamma	96.026871
loop_
_atom_site_label
_atom_site_type_symbol
_atom_site_fract_x
_atom_site_fract_y
_atom_site_fract_z
O1	O	-0.116772	1.666255	0.114243
O2	O	-0.127898	1.300626	0.114251
O3	O	-0.001364	1.493485	0.114254
O4	O	-0.243307	1.473396	0.114240
O5	O	-0.001360	1.493472	-0.114326
O6	O	-0.127895	1.300613	-0.114329
O7	O	-0.116769	1.666243	-0.114337
Zn8	Zn	-0.122331	1.483426	-0.150625
Zn9	Zn	-0.122336	1.483442	0.150539
O10	O	-0.243303	1.473384	-0.114340
C11	C	-0.127080	1.253833	-0.000038
C12	C	-0.124636	1.114422	-0.000034
C13	C	-0.196834	0.902928	-0.000044
C14	C	-0.199137	1.033918	-0.000036
C15	C	-0.047827	1.063932	-0.000027
C16	C	-0.045525	0.932945	-0.000025
C17	C	-0.274284	1.474204	-0.000052
C18	C	-0.366594	1.476643	-0.000057
C19	C	-0.588220	1.367877	-0.000035
C20	C	-0.674954	1.370179	-0.000024
C21	C	-0.656440	1.599000	-0.000036
C22	C	-0.569708	1.596697	-0.000036
C23	C	-0.535600	1.481132	-0.000043
C24	C	-0.709067	1.485737	-0.000032
C25	C	-0.803108	1.488234	-0.000021
C26	C	-0.441553	1.478634	-0.000051
C27	C	0.029617	1.492665	-0.000032
C28	C	0.121927	1.490225	-0.000017
C29	C	-0.117587	1.713036	-0.000046
C30	C	-0.120031	1.852446	-0.000040
N31	N	-0.122328	1.483424	-0.356162
C32	C	-0.066322	1.568851	-0.428086
C33	C	-0.066322	1.568863	-0.571969
C34	C	-0.178341	1.398018	-0.571990
C35	C	-0.178336	1.398001	-0.428110
N36	N	-0.122333	1.483454	0.356075
H37	H	-0.261677	1.075013	-0.000037
H38	H	0.017021	0.891843	-0.000018
H39	H	-0.020717	1.638424	-0.630526
H40	H	-0.223943	1.328430	-0.369545
C41	C	-0.693590	1.724373	0.000172
C42	C	-0.742860	1.732375	0.117750
C43	C	-0.777103	1.847845	0.117975
H44	H	-0.649915	1.791605	0.000240
H45	H	-0.727086	1.730030	-0.079500
H46	H	-0.709366	1.726731	0.197402
H47	H	-0.786548	1.665171	0.117707
H48	H	-0.810599	1.853502	0.038303
H49	H	-0.733423	1.915067	0.118040
H50	H	-0.810543	1.853285	0.197743
H51	H	0.012834	1.129490	-0.000017
H52	H	-0.717794	1.277956	-0.000016
C53	C	-0.512709	1.719802	-0.000115
C54	C	-0.561141	1.821502	-0.000157
C55	C	-0.508663	1.934919	-0.000242
H56	H	-0.478473	1.723842	0.079575
H57	H	-0.478502	1.723720	-0.079857
H58	H	-0.595333	1.817587	0.079577
H59	H	-0.595376	1.817504	-0.079841
H60	H	-0.474456	1.938836	-0.079985
H61	H	-0.474429	1.938946	0.079449
H62	H	-0.541516	2.003936	-0.000284
C63	C	-0.551074	1.242502	0.000189
C64	C	-0.501803	1.234524	0.117771
C65	C	-0.467564	1.119051	0.118020
H66	H	-0.594750	1.175273	0.000269
H67	H	-0.517578	1.236823	-0.079480
H68	H	-0.535296	1.240190	0.197420
H69	H	-0.458113	1.301725	0.117716
H70	H	-0.434069	1.113372	0.038351
H71	H	-0.511246	1.051831	0.118097
H72	H	-0.434124	1.113627	0.197791
C73	C	-0.005416	1.661640	-0.350218
C74	C	0.043646	1.736431	-0.444010
C75	C	0.099773	1.821910	-0.372333
H76	H	-0.035546	1.714014	-0.294071
H77	H	0.029520	1.616508	-0.294133
H78	H	0.008715	1.781559	-0.500072
H79	H	0.073794	1.684092	-0.500160
H80	H	0.134708	1.776778	-0.316248
H81	H	0.069636	1.874275	-0.316189
H82	H	0.133073	1.872658	-0.435960
C83	C	-0.277660	0.815380	0.000170
C84	C	-0.280747	0.739287	0.117753
C85	C	-0.355187	0.658615	0.117993
H86	H	-0.323798	0.864052	0.000244
H87	H	-0.279915	0.763580	-0.079499
H88	H	-0.278500	0.791082	0.197402
H89	H	-0.234626	0.690588	0.117705
H90	H	-0.357443	0.606815	0.038324
H91	H	-0.401320	0.707298	0.118063
H92	H	-0.357289	0.606969	0.197764
C93	C	-0.239019	1.305226	-0.650289
C94	C	-0.194259	1.228413	-0.732941
C95	C	-0.250130	1.142930	-0.805101
H96	H	-0.272397	1.254220	-0.587004
H97	H	-0.273897	1.350357	-0.706482
H98	H	-0.159396	1.183285	-0.676753
H99	H	-0.160884	1.279384	-0.796251
H100	H	-0.285007	1.188062	-0.861294
H101	H	-0.283504	1.091934	-0.741807
H102	H	-0.219768	1.090811	-0.861198
