data_functionalizedCrystal
_audit_creation_method	'MofGen! by Chris Wilmer'
_symmetry_space_group_name_H-M	'P1'
_symmetry_Int_Tables_number	1
_symmetry_cell_setting	triclinic
loop_
_symmetry_equiv_pos_as_xyz
  x,y,z
_cell_length_a	10.723024
_cell_length_b	9.198806
_cell_length_c	10.723024
_cell_angle_alpha	90.002012
_cell_angle_beta	84.467869
_cell_angle_gamma	90.003648
loop_
_atom_site_label
_atom_site_type_symbol
_atom_site_fract_x
_atom_site_fract_y
_atom_site_fract_z
O1	O	1.657188	0.120879	0.175024
O2	O	1.294035	0.120884	0.191778
O3	O	1.483988	0.120876	0.001825
O4	O	1.467235	0.120887	0.364977
O5	O	1.483973	-0.120909	0.001824
O6	O	1.294020	-0.120901	0.191777
O7	O	1.657173	-0.120906	0.175024
Cu8	Cu	1.475595	-0.142981	0.183401
Cu9	Cu	1.475613	0.142958	0.183401
O10	O	1.467220	-0.120898	0.364977
C11	C	1.247528	-0.000008	0.190558
C12	C	1.108974	-0.000007	0.186911
C13	C	1.033991	-0.000002	0.293198
C14	C	0.890788	-0.000001	0.289431
N15	N	1.475592	-0.344095	0.183399
C16	C	1.555347	-0.416295	0.103292
C17	C	1.555367	-0.583707	0.103288
C18	C	1.703680	-0.000011	0.176243
C19	C	1.842234	-0.000003	0.179891
C20	C	1.482762	-0.000015	-0.044675
C21	C	1.479114	-0.000010	-0.183229
N22	N	1.475626	0.344072	0.183393
C23	C	1.585401	-0.000009	-0.258212
C24	C	1.581634	-0.000004	-0.401415
C25	C	1.468447	-0.000004	0.411477
C26	C	1.472094	0.000000	0.550031
H27	H	0.906659	0.000003	0.088896
Cl28	Cl	1.370180	-0.440001	0.289280
Cl29	Cl	1.722124	-0.000014	-0.500888
Cl30	Cl	1.044415	-0.000021	0.042105
Cl31	Cl	1.660469	-0.320389	-0.002877
Cl32	Cl	1.334308	0.000007	-0.247788
H33	H	1.623653	-0.645796	0.034709
Cl34	Cl	1.370202	-0.560082	0.289295
H35	H	1.679187	-0.000019	-0.216390
H36	H	1.075814	-0.000008	0.386984
Cl37	Cl	1.331599	-0.000012	-0.350504
H38	H	0.826355	0.000009	0.380421
