data_functionalizedCrystal
_audit_creation_method	'MofGen! by Chris Wilmer'
_symmetry_space_group_name_H-M	'P1'
_symmetry_Int_Tables_number	1
_symmetry_cell_setting	triclinic
loop_
_symmetry_equiv_pos_as_xyz
  x,y,z
_cell_length_a	11.169417
_cell_length_b	19.121063
_cell_length_c	11.169409
_cell_angle_alpha	92.400842
_cell_angle_beta	89.979436
_cell_angle_gamma	92.469728
loop_
_atom_site_label
_atom_site_type_symbol
_atom_site_fract_x
_atom_site_fract_y
_atom_site_fract_z
Zn1	Zn	1.814451	-0.279539	-0.698851
Zn2	Zn	1.805714	-0.397013	-0.506702
Zn3	Zn	1.613731	-0.279582	-0.498188
Zn4	Zn	1.605125	-0.396955	-0.707343
O5	O	1.709755	-0.338272	-0.602771
O6	O	1.981241	-0.295129	-0.673371
O7	O	1.780192	-0.381477	-0.337626
O8	O	1.647615	-0.181292	-0.517690
O9	O	1.974822	-0.381435	-0.532200
O10	O	1.795083	-0.181261	-0.665116
O11	O	1.639143	-0.295201	-0.331371
O12	O	1.444640	-0.295146	-0.525924
O13	O	1.632947	-0.381338	-0.874163
O14	O	1.438317	-0.381380	-0.679589
O15	O	1.786738	-0.295073	-0.867924
O16	O	1.771847	-0.495289	-0.540435
O17	O	1.624475	-0.495247	-0.687844
C18	C	1.397931	-0.338262	-0.602755
C19	C	1.264530	-0.338274	-0.602778
C20	C	1.696312	-0.520752	-0.616011
C21	C	1.690671	-0.598818	-0.621715
C22	C	1.764809	-0.635491	-0.547710
C23	C	1.759510	-0.708842	-0.553082
C24	C	1.680067	-0.745518	-0.632454
C25	C	1.605926	-0.708839	-0.706467
C26	C	1.611231	-0.635489	-0.701100
C27	C	1.660212	-0.966986	-0.652499
C28	C	1.654910	-1.040341	-0.657858
C29	C	1.808497	-1.040339	-0.504474
C30	C	1.813790	-0.966988	-0.499110
C31	C	1.739653	-0.930316	-0.573127
C32	C	1.674647	-0.820494	-0.637944
C33	C	1.745081	-0.855341	-0.567642
C34	C	2.022796	-0.338284	-0.602788
C35	C	2.156196	-0.338288	-0.602795
C36	C	1.709857	-0.338195	-0.915808
C37	C	1.709900	-0.338161	-1.049206
C38	C	1.723283	-0.155080	-0.589506
C39	C	1.729048	-0.077015	-0.583853
C40	C	1.709726	-0.338299	-0.290948
C41	C	1.709930	-0.338135	-0.157537
H42	H	1.829495	-0.605635	-0.483072
F43	F	1.521382	-0.747874	-0.790947
H44	H	1.819881	-0.738699	-0.492818
F45	F	1.898358	-0.927960	-0.414645
H46	H	1.550862	-0.605630	-0.761364
F47	F	1.829632	-0.816306	-0.483177
F48	F	1.590098	-0.859534	-0.722414
F49	F	1.887398	-1.079374	-0.425711
H50	H	1.590232	-1.070200	-0.722513
H51	H	1.599845	-0.937133	-0.712765
