data_functionalizedCrystal
_audit_creation_method	'MofGen! by Chris Wilmer'
_symmetry_space_group_name_H-M	'P1'
_symmetry_Int_Tables_number	1
_symmetry_cell_setting	triclinic
loop_
_symmetry_equiv_pos_as_xyz
  x,y,z
_cell_length_a	19.288859
_cell_length_b	13.101039
_cell_length_c	19.288865
_cell_angle_alpha	86.654591
_cell_angle_beta	83.134986
_cell_angle_gamma	93.346713
loop_
_atom_site_label
_atom_site_type_symbol
_atom_site_fract_x
_atom_site_fract_y
_atom_site_fract_z
O1	O	0.925185	0.085246	0.082780
O2	O	1.258519	0.418579	0.416113
O3	O	1.591852	0.751913	0.749447
O4	O	0.722924	0.085245	0.094473
O5	O	1.056258	0.418579	0.427807
O6	O	1.389591	0.751912	0.761140
O7	O	0.829898	0.085225	-0.012503
O8	O	1.163232	0.418559	0.320831
O9	O	1.496565	0.751892	0.654164
O10	O	0.818211	0.085266	0.189756
O11	O	1.151545	0.418599	0.523090
O12	O	1.484878	0.751933	0.856423
O13	O	0.822223	-0.085203	-0.004815
O14	O	1.155556	0.248130	0.328519
O15	O	1.488890	0.581464	0.661852
O16	O	0.715249	-0.085183	0.102161
O17	O	1.048582	0.248150	0.435495
O18	O	1.381916	0.581483	0.768828
O19	O	0.917510	-0.085182	0.090468
O20	O	1.250843	0.248151	0.423802
O21	O	1.584177	0.581484	0.757135
Zn22	Zn	0.815161	-0.112242	0.097535
Zn23	Zn	1.148494	0.221091	0.430869
Zn24	Zn	1.481828	0.554425	0.764202
Zn25	Zn	0.825273	0.112305	0.087406
Zn26	Zn	1.158607	0.445638	0.420739
Zn27	Zn	1.491940	0.778971	0.754073
O28	O	0.810536	-0.085163	0.197444
O29	O	1.143869	0.248171	0.530778
O30	O	1.477203	0.581504	0.864111
C31	C	0.693210	0.000031	0.097942
C32	C	1.026543	0.333364	0.431275
C33	C	1.359877	0.666697	0.764609
C34	C	0.616106	0.000029	0.096815
C35	C	0.949439	0.333363	0.430148
C36	C	1.282773	0.666696	0.763481
N37	N	0.808264	-0.265489	0.104448
N38	N	1.141598	0.067844	0.437781
N39	N	1.474931	0.401177	0.771115
C40	C	0.052066	0.000042	0.151957
C41	C	0.385399	0.333375	0.485291
C42	C	0.718733	0.666709	0.818624
C43	C	0.124513	0.000048	0.153022
C44	C	0.457846	0.333381	0.486356
C45	C	0.791179	0.666714	0.819689
C46	C	0.169219	0.000033	0.090254
C47	C	0.502552	0.333366	0.423587
C48	C	0.835886	0.666700	0.756921
C49	C	0.141474	0.000039	0.026414
C50	C	0.474807	0.333373	0.359748
C51	C	0.808141	0.666706	0.693081
C52	C	0.069029	0.000044	0.025351
C53	C	0.402362	0.333377	0.358684
C54	C	0.735696	0.666711	0.692017
C55	C	0.287800	-0.059689	0.046135
C56	C	0.621133	0.273645	0.379468
C57	C	0.954466	0.606978	0.712802
C58	C	0.360243	-0.059700	0.047202
C59	C	0.693576	0.273634	0.380535
C60	C	1.026909	0.606967	0.713868
C61	C	0.392664	0.000023	0.093532
C62	C	0.725998	0.333357	0.426865
C63	C	1.059331	0.666690	0.760199
C64	C	0.352632	0.059744	0.138808
C65	C	0.685965	0.393077	0.472141
C66	C	1.019298	0.726411	0.805474
C67	C	0.280187	0.059749	0.137744
C68	C	0.613520	0.393082	0.471077
C69	C	0.946853	0.726415	0.804411
C70	C	0.247774	0.000029	0.091400
C71	C	0.581108	0.333362	0.424734
C72	C	0.914441	0.666695	0.758067
C73	C	0.498956	0.000030	0.158522
C74	C	0.832289	0.333364	0.491855
C75	C	1.165623	0.666697	0.825189
C76	C	0.571405	0.000042	0.159584
C77	C	0.904738	0.333376	0.492917
C78	C	1.238072	0.666709	0.826251
C79	C	0.588365	0.000024	0.032974
C80	C	0.921698	0.333357	0.366308
C81	C	1.255031	0.666690	0.699641
C82	C	0.515918	0.000022	0.031914
C83	C	0.849251	0.333355	0.365247
C84	C	1.182584	0.666689	0.698580
C85	C	0.471217	0.000020	0.094690
C86	C	0.804550	0.333354	0.428023
C87	C	1.137884	0.666687	0.761356
C88	C	0.798881	-0.474530	0.113859
C89	C	1.132215	-0.141197	0.447193
C90	C	1.465548	0.192137	0.780526
C91	C	0.841556	-0.525414	0.071079
C92	C	1.174889	-0.192080	0.404412
C93	C	1.508223	0.141253	0.737746
C94	C	0.836335	-0.641731	0.076316
C95	C	1.169669	-0.308398	0.409649
C96	C	1.503002	0.024935	0.742982
C97	C	0.804101	-0.358202	0.108624
C98	C	1.137435	-0.024869	0.441957
C99	C	1.470768	0.308465	0.775290
C100	C	0.947224	0.000034	0.087000
C101	C	1.280558	0.333368	0.420333
C102	C	1.613891	0.666701	0.753666
C103	C	1.024329	0.000042	0.088127
C104	C	1.357662	0.333376	0.421460
C105	C	1.690995	0.666709	0.754793
C106	C	0.825684	0.000008	-0.034535
C107	C	1.159018	0.333341	0.298798
C108	C	1.492351	0.666675	0.632132
C109	C	0.824555	-0.000001	-0.111638
C110	C	1.157888	0.333332	0.221695
C111	C	1.491222	0.666666	0.555028
N112	N	0.832175	0.265552	0.080488
N113	N	1.165509	0.598885	0.413821
N114	N	1.498842	0.932219	0.747155
C115	C	0.887323	-0.000006	-0.156336
C116	C	1.220656	0.333328	0.176998
C117	C	1.553990	0.666661	0.510331
C118	C	0.886263	0.000010	-0.228783
C119	C	1.219596	0.333344	0.104550
C120	C	1.552930	0.666677	0.437883
C121	C	0.822431	0.000011	-0.256530
C122	C	1.155764	0.333344	0.076804
C123	C	1.489097	0.666678	0.410137
C124	C	0.759655	0.000021	-0.211823
C125	C	1.092988	0.333355	0.121511
C126	C	1.426321	0.666688	0.454844
C127	C	0.760717	0.000015	-0.139377
C128	C	1.094050	0.333349	0.193957
C129	C	1.427384	0.666682	0.527290
C130	C	0.769562	-0.059687	-0.362123
C131	C	1.102896	0.273647	-0.028790
C132	C	1.436229	0.606980	0.304544
C133	C	0.768503	-0.059687	-0.434567
C134	C	1.101836	0.273646	-0.101234
C135	C	1.435169	0.606980	0.232099
C136	C	0.819152	0.000034	-0.479976
C137	C	1.152485	0.333367	-0.146643
C138	C	1.485819	0.666700	0.186691
C139	C	0.870872	0.059742	-0.452933
C140	C	1.204206	0.393075	-0.119599
C141	C	1.537539	0.726409	0.213734
C142	C	0.871935	0.059736	-0.380487
C143	C	1.205268	0.393069	-0.047154
C144	C	1.538601	0.726403	0.286180
C145	C	0.821272	0.000018	-0.335084
C146	C	1.154605	0.333351	-0.001751
C147	C	1.487938	0.666685	0.331583
C148	C	0.880775	0.000048	-0.603230
C149	C	1.214108	0.333381	-0.269897
C150	C	1.547442	0.666715	0.063436
C151	C	0.879713	0.000071	-0.675679
C152	C	1.213046	0.333404	-0.342346
C153	C	1.546379	0.666737	-0.009013
C154	C	0.753102	0.000071	-0.658716
C155	C	1.086435	0.333405	-0.325383
C156	C	1.419769	0.666738	0.007950
C157	C	0.754167	0.000059	-0.586270
C158	C	1.087500	0.333392	-0.252936
C159	C	1.420833	0.666726	0.080397
C160	C	0.818005	0.000043	-0.558531
C161	C	1.151338	0.333376	-0.225198
C162	C	1.484671	0.666709	0.108136
C163	C	0.814750	0.000057	0.219477
C164	C	1.148083	0.333390	0.552810
C165	C	1.481417	0.666724	0.886143
C166	C	0.815880	0.000073	0.296579
C167	C	1.149213	0.333406	0.629913
C168	C	1.482546	0.666739	0.963246
H169	H	0.015675	0.000046	0.203074
H170	H	0.349008	0.333379	0.536408
H171	H	0.682342	0.666712	0.869741
H172	H	0.758429	-0.518320	0.154415
H173	H	1.091762	-0.184986	0.487748
H174	H	1.425095	0.148347	0.821082
N175	N	0.189688	0.000027	-0.041287
N176	N	0.523021	0.333361	0.292046
N177	N	0.856355	0.666694	0.625379
H178	H	0.239791	0.000021	-0.030928
H179	H	0.573124	0.333354	0.302405
H180	H	0.906458	0.666687	0.635738
H181	H	0.177879	-0.063154	-0.066269
H182	H	0.511212	0.270179	0.267064
H183	H	0.844546	0.603513	0.600398
N184	N	0.450742	0.000041	0.226227
N185	N	0.784075	0.333374	0.559560
N186	N	1.117408	0.666708	0.892894
H187	H	0.462487	0.063226	0.251235
H188	H	0.795821	0.396560	0.584568
H189	H	1.129154	0.729893	0.917901
H190	H	0.400656	-0.000001	0.215813
H191	H	0.733990	0.333332	0.549146
H192	H	1.067323	0.666665	0.882479
H193	H	0.939305	-0.000016	-0.133756
H194	H	1.272638	0.333318	0.199577
H195	H	1.605972	0.666651	0.532911
N196	N	0.403423	-0.124101	-0.001629
N197	N	0.736757	0.209232	0.331704
N198	N	1.070090	0.542566	0.665038
H199	H	0.427761	-0.175164	0.026620
H200	H	0.761094	0.158169	0.359953
H201	H	1.094427	0.491503	0.693287
H202	H	0.371857	-0.161860	-0.031140
H203	H	0.705190	0.171474	0.302194
H204	H	1.038523	0.504807	0.635527
H205	H	0.937378	0.000011	-0.265183
H206	H	1.270711	0.333344	0.068150
H207	H	1.604044	0.666677	0.401483
N208	N	0.686468	0.000052	-0.538050
N209	N	1.019802	0.333385	-0.204717
N210	N	1.353135	0.666718	0.128616
H211	H	0.661452	0.063230	-0.549791
H212	H	0.994786	0.396563	-0.216458
H213	H	1.328119	0.729897	0.116875
H214	H	0.655817	-0.063168	-0.544129
H215	H	0.989150	0.270166	-0.210795
H216	H	1.322484	0.603499	0.122538
N217	N	0.895150	-0.467405	0.017362
N218	N	1.228483	-0.134071	0.350695
N219	N	1.561816	0.199262	0.684028
H220	H	0.943619	-0.486004	0.025978
H221	H	1.276953	-0.152670	0.359311
H222	H	1.610286	0.180663	0.692644
H223	H	0.886344	-0.486039	-0.031047
H224	H	1.219677	-0.152705	0.302286
H225	H	1.553010	0.180628	0.635620
N226	N	0.947416	0.000070	-0.723893
N227	N	1.280749	0.333403	-0.390560
N228	N	1.614082	0.666736	-0.057227
H229	H	0.988015	0.000055	-0.695325
H230	H	1.321348	0.333388	-0.361991
H231	H	1.654681	0.666722	-0.028658
H232	H	0.946881	-0.063107	-0.751480
H233	H	1.280214	0.270227	-0.418147
H234	H	1.613548	0.603560	-0.084813
N235	N	0.693016	0.000001	-0.091157
N236	N	1.026350	0.333334	0.242176
N237	N	1.359683	0.666668	0.575510
H238	H	0.693480	0.063172	-0.063558
H239	H	1.026813	0.396505	0.269775
H240	H	1.360146	0.729838	0.603108
H241	H	0.652451	-0.000035	-0.119767
H242	H	0.985784	0.333298	0.213566
H243	H	1.319118	0.666632	0.546899
H244	H	0.914046	0.108354	-0.358471
H245	H	1.247379	0.441688	-0.025138
H246	H	1.580713	0.775021	0.308196
H247	H	0.726386	-0.108299	-0.456580
H248	H	1.059719	0.225034	-0.123247
H249	H	1.393053	0.558368	0.210087
H250	H	0.912116	0.108373	-0.489904
H251	H	1.245449	0.441706	-0.156570
H252	H	1.578783	0.775040	0.176763
H253	H	0.147101	0.000038	0.205003
H254	H	0.480434	0.333371	0.538337
H255	H	0.813767	0.666704	0.871670
H256	H	0.932756	0.000039	-0.580645
H257	H	1.266089	0.333373	-0.247311
H258	H	1.599423	0.666706	0.086022
H259	H	0.701129	0.000077	-0.681307
H260	H	1.034462	0.333410	-0.347973
H261	H	1.367795	0.666743	-0.014640
N262	N	0.252824	-0.124106	-0.003834
N263	N	0.586158	0.209228	0.329500
N264	N	0.919491	0.542561	0.662833
H265	H	0.272980	-0.101830	-0.053527
H266	H	0.606313	0.231503	0.279807
H267	H	0.939646	0.564837	0.613140
H268	H	0.261212	-0.198591	0.006243
H269	H	0.594545	0.134742	0.339576
H270	H	0.927878	0.468076	0.672909
N271	N	0.714927	-0.124098	-0.313148
N272	N	1.048260	0.209236	0.020185
N273	N	1.381593	0.542569	0.353518
H274	H	0.682006	-0.161926	-0.341272
H275	H	1.015339	0.171407	-0.007938
H276	H	1.348673	0.504741	0.325395
H277	H	0.738629	-0.175100	-0.284220
H278	H	1.071963	0.158233	0.049114
H279	H	1.405296	0.491566	0.382447
H280	H	0.046447	0.000044	-0.026630
H281	H	0.379780	0.333378	0.306704
H282	H	0.713113	0.666711	0.640037
N283	N	0.690803	0.000020	-0.241738
N284	N	1.024137	0.333354	0.091595
N285	N	1.357470	0.666687	0.424928
H286	H	0.690386	0.063198	-0.274262
H287	H	1.023719	0.396531	0.059071
H288	H	1.357052	0.729865	0.392404
H289	H	0.684733	-0.063200	-0.268537
H290	H	1.018066	0.270134	0.064796
H291	H	1.351399	0.603467	0.398130
N292	N	0.237009	0.124166	0.186565
N293	N	0.570342	0.457500	0.519899
N294	N	0.903676	0.790833	0.853232
H295	H	0.268535	0.162005	0.216078
H296	H	0.601869	0.495339	0.549411
H297	H	0.935202	0.828672	0.882744
H298	H	0.212678	0.175160	0.158257
H299	H	0.546012	0.508494	0.491591
H300	H	0.879345	0.841827	0.824924
H301	H	0.379027	0.108373	0.176536
H302	H	0.712360	0.441707	0.509869
H303	H	1.045694	0.775040	0.843203
N304	N	0.486001	0.000005	-0.036936
N305	N	0.819334	0.333338	0.296398
N306	N	1.152667	0.666671	0.629731
H307	H	0.453474	-0.063173	-0.037349
H308	H	0.786808	0.270161	0.295985
H309	H	1.120141	0.603494	0.629318
H310	H	0.459205	0.063225	-0.043010
H311	H	0.792538	0.396558	0.290323
H312	H	1.125871	0.729892	0.623657
H313	H	0.624764	0.000020	-0.018133
H314	H	0.958097	0.333353	0.315200
H315	H	1.291431	0.666686	0.648533
N316	N	0.601326	0.000061	0.228433
N317	N	0.934659	0.333394	0.561766
N318	N	1.267993	0.666727	0.895099
H319	H	0.562013	0.000062	0.268036
H320	H	0.895346	0.333395	0.601370
H321	H	1.228680	0.666729	0.934703
H322	H	0.628173	-0.063115	0.234481
H323	H	0.961506	0.270219	0.567814
H324	H	1.294840	0.603552	0.901147
