data_functionalizedCrystal
_audit_creation_method	'MofGen! by Chris Wilmer'
_symmetry_space_group_name_H-M	'P1'
_symmetry_Int_Tables_number	1
_symmetry_cell_setting	triclinic
loop_
_symmetry_equiv_pos_as_xyz
  x,y,z
_cell_length_a	12.645331
_cell_length_b	18.050589
_cell_length_c	12.645323
_cell_angle_alpha	89.972583
_cell_angle_beta	89.978207
_cell_angle_gamma	90.027200
loop_
_atom_site_label
_atom_site_type_symbol
_atom_site_fract_x
_atom_site_fract_y
_atom_site_fract_z
Zn1	Zn	1.620644	-0.295659	-0.599442
Zn2	Zn	1.620496	-0.419863	-0.422180
Zn3	Zn	1.443362	-0.295689	-0.422186
Zn4	Zn	1.443308	-0.419810	-0.599396
O5	O	1.531953	-0.357755	-0.510801
O6	O	1.768972	-0.312145	-0.575945
O7	O	1.596959	-0.403425	-0.273834
O8	O	1.466963	-0.191760	-0.445722
O9	O	1.768863	-0.403397	-0.445711
O10	O	1.597212	-0.191739	-0.575951
O11	O	1.466819	-0.312195	-0.273838
O12	O	1.295007	-0.312144	-0.445677
O13	O	1.466872	-0.403307	-0.747749
O14	O	1.294968	-0.403335	-0.575872
O15	O	1.597160	-0.312094	-0.747783
O16	O	1.596907	-0.523780	-0.445666
O17	O	1.466728	-0.523741	-0.575866
C18	C	1.256523	-0.357737	-0.510770
C19	C	1.138693	-0.357748	-0.510783
C20	C	0.971118	-0.300116	-0.429329
C21	C	1.093678	-0.300265	-0.428970
C22	C	1.094153	-0.435982	-0.480267
C23	C	0.971554	-0.435667	-0.479711
C24	C	0.971547	-0.337891	-0.623067
C25	C	1.094153	-0.336143	-0.622443
C26	C	1.531825	-0.550707	-0.510784
C27	C	1.531867	-0.633253	-0.510811
C28	C	1.461145	-0.832710	-0.581589
C29	C	1.435300	-0.882154	-0.484854
C30	C	1.531971	-0.784383	-0.510825
C31	C	1.557868	-0.882021	-0.607571
C32	C	1.532070	-0.930368	-0.510847
C33	C	1.506075	-0.832741	-0.414039
C34	C	1.628688	-0.832603	-0.536821
C35	C	1.602880	-0.882025	-0.440020
C36	C	1.531912	-0.700285	-0.510814
C37	C	1.532129	-1.014465	-0.510847
C38	C	1.808458	-0.357773	-0.510832
C39	C	1.926288	-0.357781	-0.510846
C40	C	1.532027	-0.357691	-0.787307
C41	C	1.532058	-0.357664	-0.905137
C42	C	1.532110	-0.164049	-0.510842
C43	C	1.532177	-0.081504	-0.510859
C44	C	1.450099	-0.415034	-0.949997
C45	C	1.449810	-0.414818	-1.072557
C46	C	1.502209	-0.279273	-1.073040
C47	C	1.501582	-0.279651	-0.950442
C48	C	1.644141	-0.377902	-0.950327
C49	C	1.643572	-0.379582	-1.072934
C50	C	1.531940	-0.357765	-0.235371
C51	C	1.532114	-0.357583	-0.117542
H52	H	0.941669	-0.241928	-0.448251
Cl53	Cl	0.923469	-0.320172	-0.301693
H54	H	1.367519	-0.401782	-0.919185
H55	H	1.558703	-0.235432	-0.920765
Cl56	Cl	1.377149	-0.252341	-1.120435
H57	H	1.419665	-0.262527	-0.921844
H58	H	1.122954	-0.313411	-0.345809
Cl59	Cl	1.678403	-0.468564	-1.117839
Cl60	Cl	1.309087	-0.915757	-0.450909
H61	H	1.468478	-0.472879	-1.102646
Cl62	Cl	1.695422	-0.915248	-0.347540
Cl63	Cl	0.927318	-0.461705	-0.353048
Cl64	Cl	1.686257	-0.464611	-0.902605
Cl65	Cl	1.591625	-0.915445	-0.733874
H66	H	1.707891	-0.340845	-1.103559
H67	H	1.468530	-0.473299	-0.920520
Cl68	Cl	1.140179	-0.210696	-0.458497
H69	H	1.705201	-0.336114	-0.921324
Cl70	Cl	0.925761	-0.504251	-0.567371
Cl71	Cl	1.139153	-0.504092	-0.569063
Cl72	Cl	1.472173	-0.799463	-0.287697
Cl73	Cl	1.139129	-0.247264	-0.657986
H74	H	1.710414	-0.810823	-0.558835
H75	H	1.560093	-0.235335	-1.102177
Cl76	Cl	0.923873	-0.251348	-0.665913
Cl77	Cl	1.141470	-0.462473	-0.354962
Cl78	Cl	1.141459	-0.396262	-0.721234
Cl79	Cl	0.926787	-0.402735	-0.716842
H80	H	1.401162	-0.811055	-0.641347
Cl81	Cl	1.321600	-0.394097	-1.117843
