data_functionalizedCrystal
_audit_creation_method	'MofGen! by Chris Wilmer'
_symmetry_space_group_name_H-M	'P1'
_symmetry_Int_Tables_number	1
_symmetry_cell_setting	triclinic
loop_
_symmetry_equiv_pos_as_xyz
  x,y,z
_cell_length_a	10.723023
_cell_length_b	10.723024
_cell_length_c	9.198806
_cell_angle_alpha	90.002000
_cell_angle_beta	90.003544
_cell_angle_gamma	84.467709
loop_
_atom_site_label
_atom_site_type_symbol
_atom_site_fract_x
_atom_site_fract_y
_atom_site_fract_z
O1	O	1.657188	0.175020	0.120884
O2	O	2.157188	0.675020	0.620884
O3	O	1.294035	0.191774	0.120888
O4	O	1.794035	0.691774	0.620888
O5	O	1.483988	0.001821	0.120881
O6	O	1.983988	0.501821	0.620881
O7	O	1.467235	0.364973	0.120892
O8	O	1.967235	0.864973	0.620892
O9	O	1.483974	0.001820	-0.120904
O10	O	1.983974	0.501820	0.379096
O11	O	1.294021	0.191774	-0.120897
O12	O	1.794021	0.691774	0.379103
O13	O	1.657174	0.175019	-0.120901
O14	O	2.157174	0.675019	0.379099
Cu15	Cu	1.475596	0.183396	-0.142976
Cu16	Cu	1.975596	0.683396	0.357024
Cu17	Cu	1.475613	0.183397	0.142963
Cu18	Cu	1.975613	0.683397	0.642963
O19	O	1.467221	0.364973	-0.120893
O20	O	1.967221	0.864973	0.379107
C21	C	1.247529	0.190555	-0.000004
C22	C	1.747529	0.690555	0.499996
C23	C	1.108974	0.186908	-0.000003
C24	C	1.608974	0.686908	0.499997
C25	C	0.903999	0.181512	-0.125249
C26	C	1.403999	0.681512	0.374751
C27	C	1.047202	0.185281	-0.125254
C28	C	1.547202	0.685281	0.374746
C29	C	1.482762	-0.044679	-0.000010
C30	C	1.982762	0.455321	0.499990
C31	C	1.479114	-0.183233	-0.000005
C32	C	1.979114	0.316767	0.499995
C33	C	1.585402	-0.258216	-0.000004
C34	C	2.085402	0.241784	0.499996
C35	C	1.581634	-0.401420	0.000001
C36	C	2.081634	0.098580	0.500001
C37	C	1.703680	0.176239	-0.000005
C38	C	2.203680	0.676239	0.499995
C39	C	1.842235	0.179886	0.000003
C40	C	2.342235	0.679886	0.500003
C41	C	1.468447	0.411473	0.000001
C42	C	1.968447	0.911473	0.500001
C43	C	1.472095	0.550027	0.000005
C44	C	1.972095	1.050027	0.500005
N45	N	1.475593	0.183395	-0.344090
N46	N	1.975593	0.683395	0.155910
C47	C	1.402844	0.111032	-0.416323
C48	C	1.902844	0.611032	0.083677
C49	C	1.402861	0.111027	-0.583735
C50	C	1.902861	0.611027	-0.083735
N51	N	1.475625	0.183388	0.344077
N52	N	1.975625	0.683388	0.844077
H53	H	0.850859	0.180119	-0.232479
H54	H	1.350859	0.680119	0.267521
H55	H	1.672625	-0.465852	-0.000004
H56	H	2.172625	0.034148	0.499996
H57	H	1.100319	0.186674	-0.232487
H58	H	1.600319	0.686674	0.267513
H59	H	1.385328	-0.225055	0.000005
H60	H	1.885328	0.274945	0.500005
H61	H	1.340581	0.049071	-0.645854
H62	H	1.840581	0.549071	-0.145854
H63	H	0.895373	0.181292	0.107233
H64	H	1.395373	0.681292	0.607233
H65	H	1.679188	-0.216394	-0.000014
H66	H	2.179188	0.283606	0.499986
Br67	Br	1.320422	-0.342596	-0.000014
Br68	Br	1.820422	0.157404	0.499986
Br69	Br	1.298996	0.007783	-0.312836
Br70	Br	1.798996	0.507783	0.187164
Br71	Br	1.579456	0.286647	-0.552408
Br72	Br	2.079456	0.786647	-0.052408
H73	H	1.537882	0.245352	-0.406189
H74	H	2.037882	0.745352	0.093811
H75	H	1.055867	0.185506	0.107236
H76	H	1.555867	0.685506	0.607236
