data_functionalizedCrystal
_audit_creation_method	'MofGen! by Chris Wilmer'
_symmetry_space_group_name_H-M	'P1'
_symmetry_Int_Tables_number	1
_symmetry_cell_setting	triclinic
loop_
_symmetry_equiv_pos_as_xyz
  x,y,z
_cell_length_a	10.654554
_cell_length_b	10.654551
_cell_length_c	16.776229
_cell_angle_alpha	89.996205
_cell_angle_beta	89.992718
_cell_angle_gamma	84.486102
loop_
_atom_site_label
_atom_site_type_symbol
_atom_site_fract_x
_atom_site_fract_y
_atom_site_fract_z
O1	O	1.667843	0.176430	-0.066286
O2	O	1.302365	0.193230	-0.066287
O3	O	1.493506	0.002091	-0.066287
O4	O	1.476702	0.367569	-0.066286
O5	O	1.493481	0.002079	0.066290
O6	O	1.302340	0.193218	0.066290
O7	O	1.667817	0.176418	0.066290
Zn8	Zn	1.485074	0.184816	0.087340
Zn9	Zn	1.485108	0.184832	-0.087336
O10	O	1.476676	0.367557	0.066291
C11	C	1.255555	0.191989	0.000002
C12	C	1.116112	0.188295	0.000001
C13	C	0.933549	0.068808	-0.000006
C14	C	1.064571	0.072279	0.000000
C15	C	1.036623	0.300848	0.000005
C16	C	0.905604	0.297376	0.000005
C17	C	0.882016	-0.047215	-0.000015
C18	C	0.961496	-0.159769	-0.000017
C19	C	1.092517	-0.156299	-0.000011
C20	C	1.144059	-0.040274	-0.000004
C21	C	1.492259	-0.044713	-0.000000
C22	C	1.488567	-0.184156	-0.000006
C23	C	1.486849	-0.249662	-0.072272
C24	C	1.483369	-0.380682	-0.072268
C25	C	1.483330	-0.380681	0.072274
C26	C	1.486801	-0.249662	0.072270
C27	C	1.488614	-0.184156	-0.144547
C28	C	1.486898	-0.249662	-0.216819
C29	C	1.483417	-0.380683	-0.216815
C30	C	1.481654	-0.446197	-0.144540
C31	C	1.714628	0.177659	0.000000
C32	C	1.854071	0.181353	-0.000004
C33	C	1.477923	0.414361	0.000002
C34	C	1.481616	0.553804	0.000002
N35	N	1.485060	0.184804	0.206551
N36	N	1.485132	0.184834	-0.206547
C37	C	1.569724	0.100203	0.248268
C38	C	1.569731	0.100202	0.331720
C39	C	1.485079	0.184809	0.373454
C40	C	1.400407	0.269414	0.331731
C41	C	1.400395	0.269408	0.248280
C42	C	1.400452	0.269440	0.668278
C43	C	1.400473	0.269442	0.751735
C44	C	1.569789	0.100233	0.751718
C45	C	1.569777	0.100227	0.668267
C46	C	1.485100	0.184827	0.626552
C47	C	1.485092	0.184826	0.536063
C48	C	1.485093	0.184818	0.463940
H49	H	1.157227	-0.247945	-0.000006
C50	C	1.288189	-0.036464	0.000006
N51	N	1.396746	-0.033595	0.000008
C52	C	1.307337	0.362512	0.797640
N53	N	1.237190	0.432609	0.832216
C54	C	0.737891	-0.051043	-0.000014
N55	N	0.629336	-0.053925	-0.000011
H56	H	1.638733	0.031343	0.785691
H57	H	1.478802	-0.552881	-0.144543
C58	C	1.093326	0.428466	0.000007
N59	N	1.136034	0.524589	0.000004
H60	H	1.481895	-0.434034	0.131117
C61	C	1.488837	-0.177594	-0.296318
N62	N	1.490300	-0.123313	-0.356198
C63	C	1.307470	0.362666	0.622402
N64	N	1.237490	0.432948	0.587845
C65	C	0.818173	0.421181	-0.000001
N66	N	0.752319	0.514434	-0.000005
H67	H	1.488174	-0.196323	0.131115
H68	H	1.638662	0.031312	0.214294
C69	C	1.307277	0.362471	0.377641
N70	N	1.237129	0.432564	0.412220
C71	C	1.307268	0.362486	0.202392
N72	N	1.237123	0.432596	0.167830
C73	C	0.904797	-0.287388	-0.000021
N74	N	0.862092	-0.383514	-0.000025
C75	C	1.481567	-0.452740	-0.296315
N76	N	1.480197	-0.507014	-0.356197
H77	H	1.491452	-0.077473	-0.144558
C78	C	1.662838	0.007104	0.377605
N79	N	1.732958	-0.063034	0.412165
C80	C	1.662897	0.007151	0.622365
N81	N	1.733033	-0.062962	0.587792
