data_functionalizedCrystal
_audit_creation_method	'MofGen! by Chris Wilmer'
_symmetry_space_group_name_H-M	'P1'
_symmetry_Int_Tables_number	1
_symmetry_cell_setting	triclinic
loop_
_symmetry_equiv_pos_as_xyz
  x,y,z
_cell_length_a	10.908937
_cell_length_b	10.967829
_cell_length_c	18.366186
_cell_angle_alpha	77.865925
_cell_angle_beta	89.988915
_cell_angle_gamma	72.684843
loop_
_atom_site_label
_atom_site_type_symbol
_atom_site_fract_x
_atom_site_fract_y
_atom_site_fract_z
O1	O	1.702147	-0.192361	-0.036436
O2	O	1.329146	-0.095098	-0.048636
O3	O	1.524244	-0.327165	-0.019517
O4	O	1.507048	0.039706	-0.065555
O5	O	1.524211	-0.327168	0.101583
O6	O	1.329112	-0.095101	0.072464
O7	O	1.702113	-0.192363	0.084664
Zn8	Zn	1.515608	-0.143733	0.097791
Zn9	Zn	1.515652	-0.143729	-0.061763
O10	O	1.507015	0.039703	0.055545
C11	C	1.281368	-0.086010	0.010774
C12	C	1.139056	-0.058941	0.007379
C13	C	0.942088	-0.129748	0.016252
C14	C	1.089176	-0.157728	0.019772
C15	C	1.522974	-0.373396	0.046833
C16	C	1.519223	-0.511143	0.064114
C17	C	1.517568	-0.572548	0.009085
C18	C	1.513691	-0.714917	0.026945
C19	C	1.749891	-0.201452	0.025252
C20	C	1.892203	-0.228521	0.028643
C21	C	1.508285	0.085934	-0.010807
C22	C	1.512036	0.223682	-0.028093
N23	N	1.515587	-0.143738	0.206683
N24	N	1.515683	-0.143736	-0.170653
C25	C	1.602005	-0.246461	0.257673
C26	C	1.602013	-0.246468	0.333901
C27	C	1.515615	-0.143733	0.359135
C28	C	1.429180	-0.041000	0.308135
C29	C	1.429166	-0.041002	0.231909
C30	C	1.499825	-0.026810	0.465223
C31	C	1.499848	-0.026808	0.541448
C32	C	1.515652	-0.143725	0.594242
C33	C	1.531459	-0.260654	0.570803
C34	C	1.531445	-0.260657	0.494577
C35	C	1.515621	-0.143720	0.441788
C36	C	1.602084	-0.246464	0.727888
C37	C	1.602083	-0.246471	0.804118
C38	C	1.429256	-0.040993	0.778349
C39	C	1.429251	-0.040996	0.702122
C40	C	1.515672	-0.143731	0.676896
H41	H	1.072878	0.046344	-0.005838
Br42	Br	1.199471	-0.333212	0.041790
Br43	Br	1.478410	0.131876	0.573251
H44	H	0.875904	-0.024471	0.003033
Br45	Br	1.516785	-0.599177	0.164680
H46	H	1.358886	0.042655	0.660602
Br47	Br	1.002502	-0.403997	0.050660
H48	H	1.512230	-0.767739	0.087283
H49	H	1.672449	-0.330121	0.707349
H50	H	1.513475	-0.723491	-0.088432
Br51	Br	1.520019	-0.484519	-0.091480
Br52	Br	1.719282	-0.385886	0.223437
Br53	Br	1.478505	0.131855	0.393583
H54	H	1.672388	-0.330121	0.375425
Br55	Br	1.311987	0.098424	0.812589
Br56	Br	1.552885	-0.419335	0.462767
Br57	Br	1.552924	-0.419342	0.642443
H58	H	1.672451	-0.330127	0.845637
Br59	Br	1.311915	0.098421	0.342378
H60	H	1.358792	0.042649	0.190390
