data_functionalizedCrystal
_audit_creation_method	'MofGen! by Chris Wilmer'
_symmetry_space_group_name_H-M	'P1'
_symmetry_Int_Tables_number	1
_symmetry_cell_setting	triclinic
loop_
_symmetry_equiv_pos_as_xyz
  x,y,z
_cell_length_a	21.295412
_cell_length_b	16.120530
_cell_length_c	21.295417
_cell_angle_alpha	92.874222
_cell_angle_beta	89.968813
_cell_angle_gamma	92.913341
loop_
_atom_site_label
_atom_site_type_symbol
_atom_site_fract_x
_atom_site_fract_y
_atom_site_fract_z
Zn1	Zn	-0.404643	-1.274467	-0.299484
Zn2	Zn	-0.299365	-1.274358	-0.404750
Zn3	Zn	-0.294058	-1.135059	-0.294157
Zn4	Zn	-0.399268	-1.134999	-0.399372
O5	O	-0.349333	-1.204721	-0.349441
O6	O	-0.395148	-1.391117	-0.317928
O7	O	-0.210570	-1.255859	-0.390100
O8	O	-0.308756	-1.153623	-0.206777
O9	O	-0.317801	-1.391037	-0.395265
O10	O	-0.390003	-1.256046	-0.210691
O11	O	-0.206672	-1.153517	-0.308849
O12	O	-0.303543	-1.018387	-0.303635
O13	O	-0.488071	-1.153521	-0.386101
O14	O	-0.380841	-1.018342	-0.380936
O15	O	-0.492020	-1.255987	-0.312714
O16	O	-0.312588	-1.255800	-0.492123
O17	O	-0.385986	-1.153414	-0.488172
C18	C	-0.341033	-0.988115	-0.341124
C19	C	-0.337497	-0.895450	-0.337582
C20	C	-0.349294	-1.204612	-0.512988
C21	C	-0.349302	-1.204641	-0.582958
C22	C	-0.513525	-1.204759	-0.349402
C23	C	-0.583494	-1.204776	-0.349385
C24	C	-1.085013	-1.258209	-0.311076
C25	C	-1.019270	-1.258203	-0.311091
C26	C	-0.984336	-1.204848	-0.349305
C27	C	-1.015151	-1.151511	-0.387519
C28	C	-1.080893	-1.151525	-0.387507
N29	N	-0.878316	-1.131846	-0.351350
N30	N	-0.815864	-1.131835	-0.351357
C31	C	-0.786260	-1.204804	-0.349342
N32	N	-0.821466	-1.277786	-0.347308
N33	N	-0.883924	-1.277796	-0.347298
C34	C	-0.913050	-1.204827	-0.349322
C35	C	-0.684167	-1.258135	-0.311150
C36	C	-0.618423	-1.258130	-0.311170
C37	C	-0.614305	-1.151431	-0.387594
C38	C	-0.680048	-1.151443	-0.387578
C39	C	-0.714975	-1.204794	-0.349353
C40	C	-0.185782	-1.204731	-0.349436
C41	C	-0.115820	-1.204876	-0.349282
C42	C	-0.357666	-1.422173	-0.357791
C43	C	-0.361217	-1.514838	-0.361349
C44	C	-0.331047	-0.725790	-0.331099
C45	C	-0.367665	-0.684493	-0.367830
C46	C	-0.364076	-0.590088	-0.364222
C47	C	-0.334635	-0.820203	-0.334705
C48	C	-0.311126	-1.258001	-0.617862
C49	C	-0.311142	-1.258040	-0.683606
C50	C	-0.349326	-1.204704	-0.714443
C51	C	-0.387509	-1.151341	-0.679530
C52	C	-0.387497	-1.151309	-0.613787
N53	N	-0.351330	-1.131773	-0.814912
N54	N	-0.351338	-1.131806	-0.877365
C55	C	-0.349365	-1.204798	-0.912521
N56	N	-0.347372	-1.277758	-0.882865
N57	N	-0.347361	-1.277724	-0.820406
C58	C	-0.349343	-1.204733	-0.785729
C59	C	-0.311205	-1.258204	-1.018713
C60	C	-0.311225	-1.258245	-1.084458
C61	C	-0.387588	-1.151538	-1.080380
C62	C	-0.387572	-1.151505	-1.014636
C63	C	-0.349377	-1.204837	-0.983807
C64	C	-0.349387	-1.204853	-0.185256
C65	C	-0.349410	-1.204910	-0.115290
H66	H	-1.113446	-1.301655	-0.279952
H67	H	-0.280106	-1.301633	-0.993610
H68	H	-0.418655	-1.108051	-0.986215
C69	C	-0.269226	-1.316948	-1.122853
N70	N	-0.237590	-1.361162	-1.151773
H71	H	-0.994182	-1.301633	-0.279976
H72	H	-0.712606	-1.301576	-0.280025
H73	H	-0.401711	-0.720038	-0.401984
C74	C	-0.584535	-1.316802	-0.269136
N75	N	-0.559010	-1.360993	-0.237474
H76	H	-0.986704	-1.108071	-0.418634
H77	H	-0.297004	-0.690247	-0.296947
H78	H	-1.105976	-1.108093	-0.418620
C79	C	-0.575882	-1.092741	-0.429632
N80	N	-0.546939	-1.048535	-0.461296
H81	H	-0.705132	-1.108010	-0.418687
C82	C	-0.269103	-1.316659	-0.583953
N83	N	-0.237448	-1.360837	-0.558411
C84	C	-0.269141	-1.316738	-0.722009
N85	N	-0.237504	-1.360947	-0.750931
C86	C	-0.429509	-1.092669	-0.713451
N87	N	-0.461145	-1.048475	-0.739000
C88	C	-0.429503	-1.092617	-0.575391
N89	N	-0.461145	-1.048412	-0.546471
H90	H	-0.418681	-1.108115	-1.105486
