data_functionalizedCrystal
_audit_creation_method	'MofGen! by Chris Wilmer'
_symmetry_space_group_name_H-M	'P1'
_symmetry_Int_Tables_number	1
_symmetry_cell_setting	triclinic
loop_
_symmetry_equiv_pos_as_xyz
  x,y,z
_cell_length_a	12.594516
_cell_length_b	12.594517
_cell_length_c	13.897441
_cell_angle_alpha	90.028066
_cell_angle_beta	89.973623
_cell_angle_gamma	89.988892
loop_
_atom_site_label
_atom_site_type_symbol
_atom_site_fract_x
_atom_site_fract_y
_atom_site_fract_z
Zn1	Zn	-0.423849	-1.627276	-0.545598
Zn2	Zn	-0.601859	-1.627164	-0.384311
Zn3	Zn	-0.423880	-1.449277	-0.384296
Zn4	Zn	-0.601770	-1.449262	-0.545543
O5	O	-0.512839	-1.538245	-0.464937
O6	O	-0.447486	-1.776207	-0.524233
O7	O	-0.578300	-1.603527	-0.249328
O8	O	-0.274930	-1.472942	-0.405709
O9	O	-0.578270	-1.776125	-0.405736
O10	O	-0.274907	-1.603717	-0.524217
O11	O	-0.447540	-1.472834	-0.249316
O12	O	-0.447453	-1.300330	-0.405656
O13	O	-0.578118	-1.472917	-0.680532
O14	O	-0.578148	-1.300319	-0.524124
O15	O	-0.447400	-1.603703	-0.680573
O16	O	-0.750793	-1.603512	-0.405683
O17	O	-0.750728	-1.472808	-0.524139
C18	C	-0.512795	-1.261704	-0.464883
C19	C	-0.512802	-1.143399	-0.464883
C20	C	-0.441628	-1.003357	-0.400585
C21	C	-0.415700	-1.074217	-0.488609
C22	C	-0.538682	-1.074110	-0.376868
C23	C	-0.486849	-1.003473	-0.553008
C24	C	-0.609877	-1.003360	-0.441207
C25	C	-0.583986	-1.074188	-0.529293
C26	C	-0.789380	-1.538175	-0.464928
C27	C	-0.907686	-1.538243	-0.464956
C28	C	-0.976942	-1.467146	-0.529339
C29	C	-1.047805	-1.441211	-0.441319
C30	C	-1.047621	-1.564275	-0.552991
C31	C	-0.976991	-1.512257	-0.376889
C32	C	-0.976801	-1.635365	-0.488621
C33	C	-1.047632	-1.609467	-0.400540
C34	C	-0.235219	-1.538344	-0.464968
C35	C	-0.116913	-1.538386	-0.464981
C36	C	-0.512745	-1.538321	-0.716530
C37	C	-0.512705	-1.538353	-0.823744
C38	C	-0.512865	-0.815866	-0.464972
C39	C	-0.512827	-0.934171	-0.464937
C40	C	-0.512633	-1.538382	-1.020040
C41	C	-0.512676	-1.538362	-0.910807
C42	C	-0.512856	-1.538231	-0.214323
C43	C	-0.512597	-1.538405	-0.107109
H44	H	-0.333613	-1.105322	-0.508675
N45	N	-0.712808	-0.964256	-0.416012
N46	N	-0.729455	-0.866477	-0.412710
H47	H	-0.802150	-0.838856	-0.394905
N48	N	-0.366073	-0.964331	-0.332416
N49	N	-0.374681	-0.988214	-0.245473
H50	H	-0.321319	-0.960650	-0.197332
N51	N	-0.459286	-0.964743	-0.646451
N52	N	-0.515364	-0.988196	-0.717536
H53	H	-0.495897	-0.960844	-0.783530
N54	N	-0.566108	-1.113052	-0.283464
N55	N	-0.509524	-1.090333	-0.212513
H56	H	-0.528881	-1.117838	-0.146545
H57	H	-0.945592	-1.717414	-0.508658
H58	H	-0.644186	-1.105090	-0.583753
N59	N	-0.938010	-1.391581	-0.597540
N60	N	-0.960815	-1.295485	-0.588587
H61	H	-0.933319	-1.242115	-0.636750
N62	N	-1.086920	-1.338248	-0.416221
N63	N	-1.064289	-1.259794	-0.467317
H64	H	-1.091910	-1.187073	-0.449597
H65	H	-0.946094	-1.490202	-0.302429
N66	N	-1.086320	-1.684965	-0.332167
N67	N	-1.063476	-1.675257	-0.245088
H68	H	-1.090801	-1.728573	-0.196796
H69	H	-1.078647	-1.586235	-0.627431
