data_functionalizedCrystal
_audit_creation_method	'MofGen! by Chris Wilmer'
_symmetry_space_group_name_H-M	'P1'
_symmetry_Int_Tables_number	1
_symmetry_cell_setting	triclinic
loop_
_symmetry_equiv_pos_as_xyz
  x,y,z
_cell_length_a	19.188933
_cell_length_b	22.610064
_cell_length_c	19.188930
_cell_angle_alpha	90.001060
_cell_angle_beta	83.145175
_cell_angle_gamma	90.006787
loop_
_atom_site_label
_atom_site_type_symbol
_atom_site_fract_x
_atom_site_fract_y
_atom_site_fract_z
O1	O	0.926149	0.049171	0.087165
O2	O	1.259482	0.382505	0.420498
O3	O	1.592815	0.715838	0.753831
O4	O	0.722838	0.049178	0.098897
O5	O	1.056171	0.382511	0.432231
O6	O	1.389504	0.715845	0.765564
O7	O	0.830360	0.049163	-0.008625
O8	O	1.163694	0.382496	0.324709
O9	O	1.497027	0.715830	0.658042
O10	O	0.818626	0.049186	0.194687
O11	O	1.151959	0.382520	0.528020
O12	O	1.485293	0.715853	0.861353
O13	O	0.830341	-0.049206	-0.008609
O14	O	1.163675	0.284127	0.324724
O15	O	1.497008	0.617460	0.658058
O16	O	0.722819	-0.049191	0.098913
O17	O	1.056152	0.284142	0.432246
O18	O	1.389485	0.617475	0.765580
O19	O	0.926130	-0.049198	0.087180
O20	O	1.259463	0.284136	0.420514
O21	O	1.592796	0.617469	0.753847
Zn22	Zn	0.824471	-0.064813	0.093049
Zn23	Zn	1.157805	0.268521	0.426382
Zn24	Zn	1.491138	0.601854	0.759716
Zn25	Zn	0.824496	0.064793	0.093028
Zn26	Zn	1.157830	0.398126	0.426362
Zn27	Zn	1.491163	0.731460	0.759695
O28	O	0.818607	-0.049183	0.194702
O29	O	1.151940	0.284151	0.528036
O30	O	1.485274	0.617484	0.861369
C31	C	0.696817	-0.000006	0.098525
C32	C	1.030151	0.333327	0.431858
C33	C	1.363484	0.666661	0.765192
C34	C	0.619313	-0.000004	0.097384
C35	C	0.952646	0.333329	0.430717
C36	C	1.285979	0.666663	0.764050
C37	C	0.066068	0.053610	0.089230
C38	C	0.399401	0.386943	0.422563
C39	C	0.732734	0.720276	0.755897
C40	C	0.138892	0.053612	0.090298
C41	C	0.472225	0.386945	0.423631
C42	C	0.805559	0.720279	0.756965
C43	C	0.175299	-0.000009	0.090844
C44	C	0.508632	0.333325	0.424177
C45	C	0.841965	0.666658	0.757511
C46	C	0.138877	-0.053636	0.090304
C47	C	0.472211	0.279697	0.423637
C48	C	0.805544	0.613031	0.756970
C49	C	0.066055	-0.053637	0.089229
C50	C	0.399389	0.279696	0.422562
C51	C	0.732722	0.613030	0.755895
N52	N	0.284311	-0.039916	0.132269
N53	N	0.617644	0.293417	0.465602
N54	N	0.950978	0.626750	0.798936
N55	N	0.353488	-0.039912	0.133292
N56	N	0.686822	0.293421	0.466625
N57	N	1.020155	0.626755	0.799958
C58	C	0.394707	-0.000009	0.094082
C59	C	0.728041	0.333324	0.427415
C60	C	1.061374	0.666657	0.760749
N61	N	0.364134	0.039898	0.053819
N62	N	0.697467	0.373231	0.387153
N63	N	1.030801	0.706564	0.720486
N64	N	0.294950	0.039895	0.052800
N65	N	0.628283	0.373228	0.386133
N66	N	0.961616	0.706561	0.719466
C67	C	0.254262	-0.000014	0.092009
C68	C	0.587595	0.333320	0.425343
C69	C	0.920929	0.666653	0.758676
C70	C	0.510085	0.053617	0.095775
C71	C	0.843418	0.386950	0.429109
C72	C	1.176751	0.720284	0.762442
C73	C	0.582911	0.053617	0.096839
C74	C	0.916244	0.386951	0.430172
C75	C	1.249578	0.720284	0.763506
C76	C	0.582894	-0.053632	0.096852
C77	C	0.916227	0.279701	0.430185
C78	C	1.249561	0.613034	0.763518
C79	C	0.510070	-0.053631	0.095781
C80	C	0.843403	0.279702	0.429114
C81	C	1.176737	0.613036	0.762448
C82	C	0.473669	-0.000005	0.095246
C83	C	0.807003	0.333329	0.428579
C84	C	1.140336	0.666662	0.761913
N85	N	0.824459	-0.153265	0.093063
N86	N	1.157793	0.180068	0.426396
N87	N	1.491126	0.513401	0.759729
C88	C	0.872109	-0.561913	0.045425
C89	C	1.205443	-0.228580	0.378758
C90	C	1.538776	0.104753	0.712092
C91	C	0.872113	-0.623833	0.045420
C92	C	1.205446	-0.290500	0.378753
C93	C	1.538780	0.042834	0.712087
O94	O	0.912597	-0.655858	0.004927
O95	O	1.245930	-0.322524	0.338260
O96	O	1.579264	0.010809	0.671594
N97	N	0.824496	-0.654802	0.093014
N98	N	1.157829	-0.321469	0.426347
N99	N	1.491162	0.011864	0.759681
C100	C	0.776867	-0.623848	0.140612
C101	C	1.110200	-0.290515	0.473945
C102	C	1.443534	0.042818	0.807278
O103	O	0.736365	-0.655876	0.181093
O104	O	1.069698	-0.322543	0.514426
O105	O	1.403031	0.010791	0.847760
C106	C	0.776861	-0.561930	0.140613
C107	C	1.110194	-0.228596	0.473946
C108	C	1.443527	0.104737	0.807279
C109	C	0.824486	-0.530964	0.093020
C110	C	1.157819	-0.197630	0.426354
C111	C	1.491152	0.135703	0.759687
C112	C	0.919730	-0.530947	-0.002164
C113	C	1.253063	-0.197614	0.331169
C114	C	1.586397	0.135720	0.664503
C115	C	0.919727	-0.469031	-0.002158
C116	C	1.253061	-0.135698	0.331175
C117	C	1.586394	0.197635	0.664509
C118	C	0.872104	-0.438082	0.045437
C119	C	1.205437	-0.104749	0.378771
C120	C	1.538770	0.228585	0.712104
C121	C	0.824483	-0.469048	0.093026
C122	C	1.157816	-0.135715	0.426360
C123	C	1.491150	0.197619	0.759693
C124	C	0.729229	-0.530977	0.188206
C125	C	1.062563	-0.197644	0.521540
C126	C	1.395896	0.135690	0.854873
C127	C	0.729227	-0.469054	0.188203
C128	C	1.062560	-0.135721	0.521536
C129	C	1.395893	0.197613	0.854870
C130	C	0.776852	-0.438088	0.140611
C131	C	1.110185	-0.104755	0.473944
C132	C	1.443518	0.228579	0.807277
C133	C	0.776856	-0.376183	0.140628
C134	C	1.110190	-0.042849	0.473961
C135	C	1.443523	0.290484	0.807294
N136	N	0.824474	-0.345214	0.093034
N137	N	1.157807	-0.011880	0.426367
N138	N	1.491140	0.321453	0.759700
C139	C	0.872097	-0.376163	0.045438
C140	C	1.205431	-0.042830	0.378772
C141	C	1.538764	0.290504	0.712105
C142	C	0.776883	-0.753882	0.140605
C143	C	1.110217	-0.420549	0.473938
C144	C	1.443550	-0.087215	0.807271
C145	C	0.776892	-0.815800	0.140607
C146	C	1.110226	-0.482466	0.473941
C147	C	1.443559	-0.149133	0.807274
C148	C	0.872138	-0.815780	0.045415
C149	C	1.205471	-0.482447	0.378748
C150	C	1.538804	-0.149113	0.712081
C151	C	0.872131	-0.753861	0.045416
C152	C	1.205465	-0.420528	0.378749
C153	C	1.538798	-0.087195	0.712082
C154	C	0.824500	-0.722913	0.093011
C155	C	1.157834	-0.389580	0.426344
C156	C	1.491167	-0.056246	0.759677
C157	C	0.872088	-0.246136	0.045455
C158	C	1.205421	0.087197	0.378789
C159	C	1.538755	0.420531	0.712122
C160	C	0.872083	-0.184215	0.045468
C161	C	1.205416	0.149119	0.378801
C162	C	1.538749	0.482452	0.712134
C163	C	0.776835	-0.184240	0.140657
C164	C	1.110169	0.149094	0.473991
C165	C	1.443502	0.482427	0.807324
C166	C	0.776843	-0.246155	0.140648
C167	C	1.110176	0.087178	0.473981
C168	C	1.443509	0.420511	0.807315
C169	C	0.824472	-0.277102	0.093041
C170	C	1.157805	0.056231	0.426374
C171	C	1.491138	0.389565	0.759708
O172	O	0.736391	-0.344119	0.181098
O173	O	1.069724	-0.010786	0.514431
O174	O	1.403058	0.322548	0.847765
O175	O	0.912587	-0.344128	0.004958
O176	O	1.245920	-0.010795	0.338291
O177	O	1.579253	0.322539	0.671624
C178	C	0.952150	-0.000012	0.087553
C179	C	1.285484	0.333321	0.420886
C180	C	1.618817	0.666654	0.754219
C181	C	1.029655	-0.000011	0.088694
C182	C	1.362988	0.333323	0.422027
C183	C	1.696321	0.666656	0.755360
C184	C	0.829971	-0.000023	-0.034628
C185	C	1.163304	0.333310	0.298706
C186	C	1.496638	0.666643	0.632039
C187	C	0.828830	-0.000028	-0.112132
C188	C	1.162163	0.333305	0.221201
C189	C	1.495497	0.666638	0.554534
N190	N	0.824514	0.153245	0.093009
N191	N	1.157847	0.486579	0.426343
N192	N	1.491180	0.819912	0.759676
C193	C	0.891921	-0.000033	-0.157056
C194	C	1.225254	0.333300	0.176278
C195	C	1.558588	0.666633	0.509611
C196	C	0.890849	-0.000024	-0.229880
C197	C	1.224183	0.333310	0.103454
C198	C	1.557516	0.666643	0.436787
C199	C	0.826683	-0.000021	-0.257777
C200	C	1.160017	0.333312	0.075557
C201	C	1.493350	0.666645	0.408890
C202	C	0.763584	-0.000013	-0.212843
C203	C	1.096917	0.333320	0.120490
C204	C	1.430251	0.666654	0.453823
C205	C	0.764658	-0.000017	-0.140021
C206	C	1.097991	0.333317	0.193312
C207	C	1.431324	0.666650	0.526646
N208	N	0.777629	-0.033497	-0.365777
N209	N	1.110963	0.299837	-0.032443
N210	N	1.444296	0.633170	0.300890
N211	N	0.776614	-0.033494	-0.434955
N212	N	1.109947	0.299839	-0.101622
N213	N	1.443281	0.633172	0.231711
C214	C	0.823445	-0.000009	-0.477185
C215	C	1.156778	0.333324	-0.143852
C216	C	1.490112	0.666657	0.189481
N217	N	0.871341	0.033466	-0.447625
N218	N	1.204674	0.366800	-0.114291
N219	N	1.538007	0.700133	0.219042
N220	N	0.872358	0.033462	-0.378440
N221	N	1.205691	0.366795	-0.045107
N222	N	1.539025	0.700128	0.288227
C223	C	0.825512	-0.000017	-0.336739
C224	C	1.158845	0.333316	-0.003406
C225	C	1.492179	0.666650	0.329927
C226	C	0.885378	-0.000003	-0.601073
C227	C	1.218712	0.333330	-0.267740
C228	C	1.552045	0.666664	0.065593
C229	C	0.884304	0.000010	-0.673898
C230	C	1.217637	0.333344	-0.340565
C231	C	1.550971	0.666677	-0.007231
C232	C	0.757037	0.000015	-0.656860
C233	C	1.090370	0.333348	-0.323527
C234	C	1.423704	0.666682	0.009807
C235	C	0.758113	0.000008	-0.584037
C236	C	1.091446	0.333341	-0.250704
C237	C	1.424780	0.666674	0.082630
C238	C	0.822286	-0.000004	-0.556148
C239	C	1.155619	0.333329	-0.222815
C240	C	1.488952	0.666663	0.110518
C241	C	0.818997	0.000005	0.220705
C242	C	1.152330	0.333338	0.554039
C243	C	1.485663	0.666671	0.887372
C244	C	0.820137	0.000014	0.298210
C245	C	1.153471	0.333347	0.631543
C246	C	1.486804	0.666680	0.964877
H247	H	0.480422	-0.097294	0.095347
H248	H	0.813755	0.236039	0.428680
H249	H	1.147089	0.569372	0.762013
Br250	Br	0.669953	0.000024	-0.694712
Br251	Br	1.003286	0.333358	-0.361379
Br252	Br	1.336619	0.666691	-0.028046
Br253	Br	0.979012	-0.000033	-0.119210
Br254	Br	1.312345	0.333301	0.214124
Br255	Br	1.645678	0.666634	0.547457
H256	H	0.935682	0.000010	-0.710475
H257	H	1.269016	0.333343	-0.377142
H258	H	1.602349	0.666676	-0.043808
H259	H	0.910914	-0.840990	0.006659
H260	H	1.244248	-0.507657	0.339992
H261	H	1.577581	-0.174324	0.673326
Br262	Br	0.188321	0.126387	0.091026
Br263	Br	0.521654	0.459721	0.424359
Br264	Br	0.854988	0.793054	0.757693
H265	H	0.690438	-0.443859	0.226960
H266	H	1.023771	-0.110525	0.560293
H267	H	1.357104	0.222808	0.893626
Br268	Br	0.188285	-0.126408	0.091039
Br269	Br	0.521618	0.206926	0.424372
Br270	Br	0.854952	0.540259	0.757705
Br271	Br	0.632332	0.126394	0.097556
Br272	Br	0.965665	0.459727	0.430890
Br273	Br	1.298999	0.793061	0.764223
Br274	Br	0.672485	0.000014	-0.523065
Br275	Br	1.005818	0.333347	-0.189732
Br276	Br	1.339152	0.666680	0.143602
H277	H	0.738098	-0.728687	0.179368
H278	H	1.071432	-0.395353	0.512701
H279	H	1.404765	-0.062020	0.846034
Br280	Br	0.016670	0.126388	0.088500
Br281	Br	0.350004	0.459721	0.421834
Br282	Br	0.683337	0.793054	0.755167
H283	H	0.910911	-0.728652	0.006662
H284	H	1.244245	-0.395319	0.339995
H285	H	1.577578	-0.061986	0.673328
Br286	Br	0.016634	-0.126413	0.088502
Br287	Br	0.349967	0.206920	0.421835
Br288	Br	0.683301	0.540254	0.755169
H289	H	0.480446	0.097283	0.095338
H290	H	0.813779	0.430616	0.428671
H291	H	1.147113	0.763949	0.762004
H292	H	0.910867	-0.159004	0.006712
H293	H	1.244201	0.174329	0.340045
H294	H	1.577534	0.507663	0.673379
H295	H	0.612536	-0.097291	0.097294
H296	H	0.945869	0.236042	0.430627
H297	H	1.279203	0.569375	0.763960
H298	H	0.910871	-0.271326	0.006689
H299	H	1.244204	0.062008	0.340022
H300	H	1.577538	0.395341	0.673355
Br301	Br	0.984360	-0.427013	-0.066753
Br302	Br	1.317693	-0.093680	0.266580
Br303	Br	1.651027	0.239654	0.599913
Br304	Br	0.712216	-0.288179	0.205249
Br305	Br	1.045549	0.045154	0.538582
Br306	Br	1.378883	0.378487	0.871915
H307	H	0.738063	-0.159031	0.179411
H308	H	1.071396	0.174302	0.512744
H309	H	1.404729	0.507636	0.846078
H310	H	0.958511	-0.556141	-0.040925
H311	H	1.291844	-0.222807	0.292408
H312	H	1.625178	0.110526	0.625742
Br313	Br	0.712267	-0.857818	0.205211
Br314	Br	1.045601	-0.524485	0.538544
Br315	Br	1.378934	-0.191151	0.871877
Br316	Br	0.976478	-0.000028	-0.290859
Br317	Br	1.309812	0.333306	0.042474
Br318	Br	1.643145	0.666639	0.375807
Br319	Br	0.664592	-0.572990	0.252799
Br320	Br	0.997925	-0.239656	0.586132
Br321	Br	1.331259	0.093677	0.919465
Br322	Br	0.676501	-0.000002	-0.250701
Br323	Br	1.009834	0.333331	0.082632
Br324	Br	1.343168	0.666664	0.415965
H325	H	0.713280	-0.000013	-0.103444
H326	H	1.046613	0.333320	0.229890
H327	H	1.379946	0.666654	0.563223
Br328	Br	0.972467	-0.000025	-0.563220
Br329	Br	1.305800	0.333309	-0.229886
Br330	Br	1.639134	0.666642	0.103447
