data_functionalizedCrystal
_audit_creation_method	'MofGen! by Chris Wilmer'
_symmetry_space_group_name_H-M	'P1'
_symmetry_Int_Tables_number	1
_symmetry_cell_setting	triclinic
loop_
_symmetry_equiv_pos_as_xyz
  x,y,z
_cell_length_a	10.489741
_cell_length_b	11.792241
_cell_length_c	10.268362
_cell_angle_alpha	90.000979
_cell_angle_beta	90.002404
_cell_angle_gamma	84.366295
loop_
_atom_site_label
_atom_site_type_symbol
_atom_site_fract_x
_atom_site_fract_y
_atom_site_fract_z
O1	O	-1.693510	-0.160130	-0.108220
O2	O	-1.360177	0.173203	0.225113
O3	O	-1.026843	0.506537	0.558446
O4	O	-1.322263	-0.175161	-0.108241
O5	O	-0.988930	0.158172	0.225093
O6	O	-0.655596	0.491505	0.558426
O7	O	-1.516896	-0.002500	-0.108221
O8	O	-1.183562	0.330834	0.225112
O9	O	-0.850229	0.664167	0.558446
O10	O	-1.498877	-0.332792	-0.108240
O11	O	-1.165544	0.000541	0.225093
O12	O	-0.832211	0.333875	0.558427
O13	O	-1.516875	-0.002507	0.108380
O14	O	-1.183542	0.330826	0.441713
O15	O	-0.850208	0.664159	0.775046
O16	O	-1.322242	-0.175169	0.108360
O17	O	-0.988909	0.158164	0.441693
O18	O	-0.655576	0.491498	0.775027
O19	O	-1.693489	-0.160138	0.108380
O20	O	-1.360156	0.173196	0.441714
O21	O	-1.026823	0.506529	0.775047
Cu22	Cu	-1.507864	-0.167654	0.128148
Cu23	Cu	-1.174531	0.165679	0.461481
Cu24	Cu	-0.841197	0.499013	0.794814
Cu25	Cu	-1.507888	-0.167645	-0.128008
Cu26	Cu	-1.174555	0.165688	0.205326
Cu27	Cu	-0.841222	0.499022	0.538659
O28	O	-1.498857	-0.332800	0.108361
O29	O	-1.165523	0.000534	0.441694
O30	O	-0.832190	0.333867	0.775027
C31	C	-1.274725	-0.174030	0.000057
C32	C	-0.941392	0.159303	0.333390
C33	C	-0.608058	0.492637	0.666724
C34	C	-1.133107	-0.170633	0.000050
C35	C	-0.799774	0.162700	0.333383
C36	C	-0.466440	0.496033	0.666716
C37	C	-1.515753	0.039791	0.000079
C38	C	-1.182420	0.373124	0.333412
C39	C	-0.849087	0.706457	0.666746
C40	C	-1.512366	0.165813	0.000078
C41	C	-1.179032	0.499147	0.333411
C42	C	-0.845699	0.832480	0.666744
C43	C	-1.741027	-0.161269	0.000080
C44	C	-1.407694	0.172064	0.333413
C45	C	-1.074361	0.505397	0.666746
C46	C	-1.882645	-0.164666	0.000079
C47	C	-1.549312	0.168668	0.333412
C48	C	-1.215979	0.502001	0.666745
C49	C	-1.065341	-0.060774	0.000068
C50	C	-0.732008	0.272560	0.333402
C51	C	-0.398675	0.605893	0.666735
C52	C	-0.973048	-0.112667	-0.106727
C53	C	-0.639714	0.220667	0.226606
C54	C	-0.306381	0.554000	0.559939
C55	C	-0.973061	-0.112700	0.106824
C56	C	-0.639728	0.220633	0.440157
C57	C	-0.306395	0.553966	0.773490
C58	C	-1.042679	-0.222571	-0.106834
C59	C	-0.709345	0.110762	0.226499
C60	C	-0.376012	0.444095	0.559832
C61	C	-1.042702	-0.222590	0.106813
C62	C	-0.709369	0.110743	0.440146
C63	C	-0.376035	0.444077	0.773480
C64	C	-0.950436	-0.274563	-0.000009
C65	C	-0.617102	0.058771	0.333324
C66	C	-0.283769	0.392104	0.666658
C67	C	-1.499999	-0.375090	0.000058
C68	C	-1.166665	-0.041756	0.333391
C69	C	-0.833332	0.291577	0.666725
C70	C	-1.503387	-0.501113	0.000051
C71	C	-1.170053	-0.167779	0.333384
C72	C	-0.836720	0.165554	0.666717
N73	N	-1.507856	-0.167660	0.308313
N74	N	-1.174523	0.165673	0.641647
N75	N	-0.841189	0.499007	0.974980
C76	C	-1.506136	0.396542	0.000055
C77	C	-1.172803	0.729876	0.333389
C78	C	-0.839470	1.063209	0.666722
C79	C	-1.509598	0.268148	0.000067
C80	C	-1.176264	0.601481	0.333401
C81	C	-0.842931	0.934815	0.666734
C82	C	-1.507864	-0.167662	0.426156
C83	C	-1.174531	0.165672	0.759489
C84	C	-0.841198	0.499005	1.092822
C85	C	-1.507879	-0.167653	0.573994
C86	C	-1.174546	0.165681	0.907327
C87	C	-0.841212	0.499014	1.240660
N88	N	-1.507897	-0.167639	0.691826
N89	N	-1.174564	0.165694	1.025160
N90	N	-0.841231	0.499028	1.358493
H91	H	-1.115339	0.029538	-0.000060
H92	H	-0.782005	0.362871	0.333273
H93	H	-0.448672	0.696205	0.666607
H94	H	-0.942200	-0.066179	-0.197012
H95	H	-0.608867	0.267154	0.136322
H96	H	-0.275534	0.600487	0.469655
H97	H	-1.073357	-0.269016	-0.197224
H98	H	-0.740024	0.064317	0.136110
H99	H	-0.406690	0.397651	0.469443
H100	H	-0.900704	-0.364970	-0.000072
H101	H	-0.567370	-0.031637	0.333261
H102	H	-0.234037	0.301697	0.666594
H103	H	-1.073581	-0.269039	0.197101
H104	H	-0.740248	0.064294	0.530435
H105	H	-0.406914	0.397627	0.863768
O106	O	-0.932231	-0.051122	0.226434
O107	O	-0.598898	0.282211	0.559767
O108	O	-0.265565	0.615544	0.893101
H109	H	-0.978703	0.037594	0.226204
H110	H	-0.645370	0.370928	0.559538
H111	H	-0.312036	0.704261	0.892871
