data_functionalizedCrystal
_audit_creation_method	'MofGen! by Chris Wilmer'
_symmetry_space_group_name_H-M	'P1'
_symmetry_Int_Tables_number	1
_symmetry_cell_setting	triclinic
loop_
_symmetry_equiv_pos_as_xyz
  x,y,z
_cell_length_a	10.540558
_cell_length_b	9.016244
_cell_length_c	11.026607
_cell_angle_alpha	90.004083
_cell_angle_beta	83.440423
_cell_angle_gamma	89.998287
loop_
_atom_site_label
_atom_site_type_symbol
_atom_site_fract_x
_atom_site_fract_y
_atom_site_fract_z
O1	O	-1.723428	0.123291	0.171468
O2	O	-1.223428	0.623291	0.671468
O3	O	-1.357550	0.123303	0.187589
O4	O	-0.857550	0.623303	0.687589
O5	O	-1.510165	0.123293	0.002611
O6	O	-1.010165	0.623293	0.502611
O7	O	-1.570813	0.123301	0.356446
O8	O	-1.070813	0.623301	0.856446
O9	O	-1.510152	-0.123388	0.002600
O10	O	-1.010152	0.376612	0.502600
O11	O	-1.357536	-0.123378	0.187578
O12	O	-0.857536	0.376622	0.687578
O13	O	-1.723415	-0.123390	0.171457
O14	O	-1.223415	0.376610	0.671457
Cu15	Cu	-1.540474	-0.145908	0.179517
Cu16	Cu	-1.040474	0.354092	0.679517
Cu17	Cu	-1.540490	0.145821	0.179530
Cu18	Cu	-1.040490	0.645821	0.679530
O19	O	-1.570799	-0.123379	0.356435
O20	O	-1.070799	0.376621	0.856435
C21	C	-1.309974	-0.000036	0.186370
C22	C	-0.809974	0.499964	0.686370
C23	C	-1.168232	-0.000031	0.182739
C24	C	-0.668232	0.499969	0.682739
N25	N	-1.540472	-0.351094	0.179507
N26	N	-1.040472	0.148906	0.679507
C27	C	-1.622172	-0.414024	0.080567
C28	C	-1.122172	0.085976	0.580567
C29	C	-1.622617	-0.585914	0.080842
C30	C	-1.122617	-0.085914	0.580842
C31	C	-1.597956	-0.586561	0.306806
C32	C	-1.097956	-0.086561	0.806806
C33	C	-1.598557	-0.414616	0.306213
C34	C	-1.098557	0.085384	0.806213
C35	C	-1.401267	-0.414479	0.152313
C36	C	-0.901267	0.085521	0.652313
C37	C	-1.401518	-0.586435	0.149452
C38	C	-0.901518	-0.086435	0.649452
C39	C	-0.954400	-0.000613	0.043920
C40	C	-0.454400	0.499387	0.543920
C41	C	-1.101824	-0.000040	0.047602
C42	C	-0.601824	0.499960	0.547602
C43	C	-1.120811	0.140831	0.247773
C44	C	-0.620811	0.640831	0.747773
C45	C	-0.973256	0.140931	0.243152
C46	C	-0.473256	0.640931	0.743152
C47	C	-0.973354	-0.139591	0.245889
C48	C	-0.473354	0.360409	0.745889
C49	C	-1.120610	-0.141435	0.247143
C50	C	-0.620610	0.358565	0.747143
C51	C	-0.770989	-0.000052	0.172660
C52	C	-0.270989	0.499948	0.672660
C53	C	-0.912727	-0.000058	0.176243
C54	C	-0.412727	0.499942	0.676243
C55	C	-1.498970	-0.000046	-0.042703
C56	C	-0.998970	0.499954	0.457297
C57	C	-1.465617	-0.000039	-0.177708
C58	C	-0.965617	0.499961	0.322292
N59	N	-1.540500	0.351007	0.179530
N60	N	-1.040500	0.851007	0.679530
C61	C	-1.557710	-0.000040	-0.250710
C62	C	-1.057710	0.499960	0.249290
C63	C	-1.523241	-0.000034	-0.390245
C64	C	-1.023241	0.499966	0.109755
C65	C	-1.581994	-0.000038	0.401749
C66	C	-1.081994	0.499962	0.901749
C67	C	-1.615347	-0.000035	0.536755
C68	C	-1.115347	0.499965	1.036755
H69	H	-1.584197	-0.628128	-0.013715
H70	H	-1.084197	-0.128128	0.486285
F71	F	-1.338293	-0.357826	0.033471
F72	F	-0.838293	0.142174	0.533471
F73	F	-1.386821	-0.000015	-0.443565
F74	F	-0.886821	0.499985	0.056435
H75	H	-1.358578	-0.627241	0.055814
H76	H	-0.858578	-0.127241	0.555814
H77	H	-0.912554	0.099842	-0.009237
H78	H	-0.412554	0.599842	0.490763
F79	F	-1.572219	-0.360006	-0.043443
F80	F	-1.072219	0.139994	0.456557
F81	F	-1.755627	-0.357542	0.103184
F82	F	-1.255627	0.142458	0.603184
F83	F	-1.751768	-0.000032	-0.409929
F84	F	-1.251768	0.499968	0.090071
F85	F	-1.315457	-0.642543	0.237386
F86	F	-0.815457	-0.142543	0.737386
F87	F	-1.523813	-0.639956	0.405457
F88	F	-1.023813	-0.139956	0.905457
F89	F	-1.756876	-0.639677	0.103792
F90	F	-1.256876	-0.139677	0.603792
H91	H	-1.132288	0.101110	-0.003922
H92	H	-0.632288	0.601110	0.496078
F93	F	-1.694123	-0.000036	-0.197385
F94	F	-1.194123	0.499964	0.302615
F95	F	-1.178467	0.147714	0.377479
F96	F	-0.678467	0.647714	0.877479
H97	H	-1.361254	-0.000026	-0.218511
H98	H	-0.861254	0.499974	0.281489
F99	F	-0.919598	-0.279153	0.188715
F100	F	-0.419598	0.220847	0.688715
H101	H	-1.133224	-0.101016	-0.003570
H102	H	-0.633224	0.398984	0.496430
F103	F	-1.732389	-0.362181	0.337207
F104	F	-1.232389	0.137819	0.837207
H105	H	-1.542544	-0.372985	0.381954
H106	H	-1.042544	0.127015	0.881954
H107	H	-0.934523	0.246225	0.195090
H108	H	-0.434523	0.746225	0.695090
F109	F	-1.730506	-0.642834	0.338511
F110	F	-1.230506	-0.142834	0.838511
F111	F	-1.321360	-0.361284	0.246595
F112	F	-0.821360	0.138716	0.746595
H113	H	-1.153510	0.245663	0.202605
H114	H	-0.653510	0.745663	0.702605
F115	F	-0.938376	0.149291	0.370175
F116	F	-0.438376	0.649291	0.870175
F117	F	-0.901740	-0.132657	-0.025867
F118	F	-0.401740	0.367343	0.474133
H119	H	-1.151160	-0.245645	0.199632
H120	H	-0.651160	0.254355	0.699632
H121	H	-0.947506	-0.140541	0.343492
H122	H	-0.447506	0.359459	0.843492
F123	F	-1.180474	-0.152547	0.375924
F124	F	-0.680474	0.347453	0.875924
