data_functionalizedCrystal
_audit_creation_method	'MofGen! by Chris Wilmer'
_symmetry_space_group_name_H-M	'P1'
_symmetry_Int_Tables_number	1
_symmetry_cell_setting	triclinic
loop_
_symmetry_equiv_pos_as_xyz
  x,y,z
_cell_length_a	10.654545
_cell_length_b	10.723022
_cell_length_c	9.730223
_cell_angle_alpha	89.996766
_cell_angle_beta	89.997167
_cell_angle_gamma	84.475153
loop_
_atom_site_label
_atom_site_type_symbol
_atom_site_fract_x
_atom_site_fract_y
_atom_site_fract_z
O1	O	1.667815	0.175248	-0.114272
O2	O	2.167815	0.675248	0.385728
O3	O	1.302333	0.191953	-0.114278
O4	O	1.802333	0.691953	0.385722
O5	O	1.493505	0.002025	-0.114270
O6	O	1.993505	0.502025	0.385730
O7	O	1.476643	0.365176	-0.114280
O8	O	1.976643	0.865176	0.385720
O9	O	1.493493	0.002020	0.114310
O10	O	1.993493	0.502020	0.614310
O11	O	1.302321	0.191948	0.114302
O12	O	1.802321	0.691948	0.614302
O13	O	1.667803	0.175243	0.114308
O14	O	2.167803	0.675243	0.614308
Zn15	Zn	1.485060	0.183594	0.150597
Zn16	Zn	1.985060	0.683594	0.650597
Zn17	Zn	1.485076	0.183601	-0.150567
Zn18	Zn	1.985076	0.683601	0.349433
O19	O	1.476630	0.365170	0.114300
O20	O	1.976630	0.865170	0.614300
C21	C	1.255529	0.190725	0.000011
C22	C	1.755529	0.690725	0.500011
C23	C	1.116086	0.187059	0.000009
C24	C	1.616086	0.687059	0.500009
C25	C	1.050575	0.185330	0.124609
C26	C	1.550575	0.685330	0.624609
C27	C	0.919556	0.181865	0.124609
C28	C	1.419556	0.681865	0.624609
C29	C	0.919570	0.181862	-0.124601
C30	C	1.419570	0.681862	0.375399
C31	C	1.050588	0.185318	-0.124600
C32	C	1.550588	0.685318	0.375400
C33	C	1.492273	-0.044477	0.000018
C34	C	1.992273	0.455523	0.500018
C35	C	1.488602	-0.183032	0.000014
C36	C	1.988602	0.316968	0.500014
C37	C	1.378360	-0.231608	0.000010
C38	C	1.878360	0.268392	0.500010
C39	C	1.374564	-0.374811	0.000004
C40	C	1.874564	0.125189	0.500004
C41	C	1.714607	0.176471	0.000015
C42	C	2.214607	0.676471	0.500015
C43	C	1.854050	0.180137	0.000008
C44	C	2.354050	0.680137	0.500008
C45	C	1.477863	0.411673	0.000008
C46	C	1.977863	0.911673	0.500008
C47	C	1.481533	0.550228	0.000004
C48	C	1.981533	1.050228	0.500004
N49	N	1.485058	0.183589	0.356133
N50	N	1.985058	0.683589	0.856133
N51	N	1.485088	0.183597	-0.356103
N52	N	1.985088	0.683597	0.143897
C53	C	1.569738	0.099525	0.428063
C54	C	2.069738	0.599525	0.928063
C55	C	1.569750	0.099525	0.571946
C56	C	2.069750	0.599525	1.071946
C57	C	1.400399	0.267665	0.571957
C58	C	1.900399	0.767665	1.071957
C59	C	1.400381	0.267657	0.428077
C60	C	1.900381	0.767657	0.928077
H61	H	1.103900	0.186747	0.226074
H62	H	1.603900	0.686747	0.726074
H63	H	1.331418	0.336113	0.369508
H64	H	1.831418	0.836113	0.869508
H65	H	0.866223	0.180457	0.226071
H66	H	1.366223	0.680457	0.726071
H67	H	1.638703	0.031071	0.630507
H68	H	2.138703	0.531071	1.130507
F69	F	1.251186	-0.429474	-0.000010
F70	F	1.751186	0.070526	0.499990
H71	H	0.866225	0.180446	-0.226053
H72	H	1.366225	0.680446	0.273947
F73	F	1.120315	0.187150	-0.257223
F74	F	1.620315	0.687150	0.242777
H75	H	1.286788	-0.167178	0.000017
H76	H	1.786788	0.332822	0.500017
F77	F	1.659855	0.010048	0.351501
F78	F	2.159855	0.510048	0.851501
F79	F	1.604916	-0.395118	-0.000001
F80	F	2.104916	0.104882	0.499999
F81	F	1.608299	-0.267241	0.000023
F82	F	2.108299	0.232759	0.500023
H83	H	1.331458	0.336114	0.630548
H84	H	1.831458	0.836114	1.130548
