data_functionalizedCrystal
_audit_creation_method	'MofGen! by Chris Wilmer'
_symmetry_space_group_name_H-M	'P1'
_symmetry_Int_Tables_number	1
_symmetry_cell_setting	triclinic
loop_
_symmetry_equiv_pos_as_xyz
  x,y,z
_cell_length_a	23.096457
_cell_length_b	23.096457
_cell_length_c	14.628931
_cell_angle_alpha	60.000417
_cell_angle_beta	89.998502
_cell_angle_gamma	60.000612
loop_
_atom_site_label
_atom_site_type_symbol
_atom_site_fract_x
_atom_site_fract_y
_atom_site_fract_z
Zr1	Zr	0.557780	0.633747	-0.119978
O2	O	0.465335	0.754533	-0.265930
O3	O	0.586118	0.512960	-0.075237
O4	O	0.586121	0.633748	-0.265940
O5	O	0.465332	0.633746	0.075204
O6	O	0.681401	0.633749	-0.265946
O7	O	0.465332	0.633746	-0.075227
O8	O	0.681396	0.417683	0.075187
O9	O	0.465337	0.849812	-0.265928
O10	O	0.669313	0.562643	-0.056158
O11	O	0.598206	0.562642	0.056112
O12	O	0.598209	0.704854	-0.168416
O13	O	0.527103	0.704852	-0.056146
Zr14	Zr	0.709742	0.633750	0.119935
Zr15	Zr	0.709742	0.633750	-0.119986
Zr16	Zr	0.557781	0.633747	0.119944
Zr17	Zr	0.557784	0.785707	-0.119974
Zr18	Zr	0.709738	0.481790	0.119931
O19	O	0.681404	0.754537	0.075195
O20	O	0.681404	0.754537	-0.265943
O21	O	0.465335	0.754533	0.075207
O22	O	0.802188	0.512964	0.265888
O23	O	0.802187	0.512964	-0.075250
O24	O	0.586118	0.512960	0.265900
O25	O	0.802190	0.633751	-0.075247
O26	O	0.681402	0.633749	0.265898
O27	O	0.586121	0.633748	0.265903
O28	O	0.802190	0.633751	0.075185
O29	O	0.586126	0.849814	-0.265935
O30	O	0.681396	0.417683	0.265892
O31	O	0.802185	0.417685	0.265885
O32	O	0.802185	0.417685	0.075180
O33	O	0.465337	0.849812	-0.075222
O34	O	0.586126	0.849814	-0.075229
O35	O	0.669313	0.562643	0.168373
O36	O	0.740419	0.562644	0.056104
O37	O	0.669316	0.704855	-0.056154
O38	O	0.598210	0.704854	0.056115
C39	C	0.633756	0.443670	-0.000026
C40	C	0.633755	0.379160	-0.000027
C41	C	0.581283	-0.028872	-0.082892
C42	C	0.581277	0.031747	-0.082892
C43	C	0.633766	0.009570	-0.000022
C44	C	0.686256	-0.073235	0.082870
C45	C	0.686256	-0.133851	0.082873
N46	N	0.696014	0.065673	0.025066
N47	N	0.696010	0.123259	0.025056
C48	C	0.633767	0.192200	-0.000026
N49	N	0.571524	0.201387	-0.025119
N50	N	0.571527	0.143797	-0.025115
C51	C	0.633771	0.075292	-0.000016
C52	C	0.581271	0.340724	-0.082907
C53	C	0.581265	0.401341	-0.082899
C54	C	0.686250	0.296357	0.082858
C55	C	0.686251	0.235742	0.082854
C56	C	0.633762	0.257930	-0.000034
C57	C	0.443681	0.633745	-0.000010
C58	C	0.379169	0.633744	-0.000007
C59	C	0.385979	0.559514	0.058580
C60	C	0.325363	0.559513	0.058585
C61	C	0.257939	0.633746	-0.000019
C62	C	0.251132	0.707986	-0.058608
C63	C	0.311747	0.707985	-0.058602
N64	N	0.135144	0.689002	-0.095395
N65	N	0.077565	0.688998	-0.095399
C66	C	0.075306	0.633753	-0.000039
N67	N	0.132808	0.578501	0.095324
N68	N	0.190394	0.578503	0.095326
C69	C	0.192207	0.633755	-0.000031
C70	C	0.016392	0.559517	0.058559
C71	C	-0.044226	0.559519	0.058567
C72	C	-0.118458	0.707994	-0.058637
C73	C	-0.057840	0.707990	-0.058634
C74	C	0.009582	0.633749	-0.000039
C75	C	0.823841	0.633752	-0.000032
C76	C	0.888353	0.633753	-0.000036
C77	C	0.633761	0.633748	-0.300126
C78	C	0.633761	0.633748	-0.401979
C79	C	0.633766	0.823827	-0.000017
C80	C	0.633767	0.888337	-0.000015
C81	C	0.683645	0.633749	-0.447392
C82	C	0.683646	0.633749	-0.552662
C83	C	0.633761	0.633748	0.300084
C84	C	0.633762	0.633748	0.401937
C85	C	0.823837	0.443674	-0.000037
C86	C	0.888347	0.379164	-0.000042
C87	C	0.633757	0.443670	0.300079
C88	C	0.633755	0.379160	0.401931
C89	C	0.823837	0.443674	0.300068
C90	C	0.888347	0.379164	0.401916
C91	C	0.443685	0.823823	-0.300111
C92	C	0.379175	0.888333	-0.401959
C93	C	0.443686	0.823823	-0.000006
C94	C	0.379176	0.888333	-0.000000
C95	C	0.633765	0.823827	-0.300122
C96	C	0.633767	0.888337	-0.401973
C97	C	0.881524	0.348869	-0.058654
C98	C	0.942132	0.288264	-0.058681
C99	C	1.009562	0.257950	-0.000090
C100	C	1.016383	0.288251	0.058524
C101	C	0.955776	0.348860	0.058544
C102	C	0.670872	0.348865	0.508371
C103	C	0.670867	0.288259	0.604080
C104	C	0.633751	0.257944	0.593347
C105	C	0.596630	0.288244	0.486896
C106	C	0.596630	0.348854	0.391189
C107	C	0.955765	0.348870	0.391141
C108	C	1.016385	0.288265	0.486829
C109	C	1.009585	0.257950	0.593290
C110	C	0.942160	0.288250	0.604063
C111	C	0.881542	0.348858	0.508376
C112	C	0.311757	0.918634	-0.391184
C113	C	0.251137	0.979258	-0.486871
C114	C	0.257937	1.009576	-0.593333
C115	C	0.325362	0.979272	-0.604105
C116	C	0.385980	0.918653	-0.508419
C117	C	0.385998	0.918634	0.058602
C118	C	0.325390	0.979256	0.058603
C119	C	0.257960	1.009572	0.000007
C120	C	0.251139	0.979268	-0.058602
C121	C	0.311746	0.918651	-0.058609
C122	C	0.670891	0.918633	-0.391204
C123	C	0.670906	0.979240	-0.486895
C124	C	0.633793	1.009554	-0.593354
C125	C	0.596668	0.979252	-0.604121
C126	C	0.596657	0.918642	-0.508431
H127	H	0.728992	-0.091288	0.150345
H128	H	0.726352	0.633754	-0.591718
H129	H	0.306207	0.893953	-0.304506
O130	O	0.816106	0.378160	0.519051
C131	C	0.823113	0.338414	0.633538
H132	H	0.877210	0.276986	0.684553
H133	H	0.779653	0.327949	0.646901
H134	H	0.818144	0.378167	0.661737
O135	O	0.530284	0.362154	-0.163282
C136	C	0.491863	0.330245	-0.112595
H137	H	0.525663	0.275604	-0.022065
H138	H	0.477614	0.309812	-0.160188
H139	H	0.441244	0.379513	-0.114546
O140	O	0.734590	0.633677	-0.400629
C141	C	0.772968	0.563156	-0.289588
H142	H	0.739161	0.539606	-0.256773
H143	H	0.787155	0.579058	-0.234791
H144	H	0.823621	0.513781	-0.287408
O145	O	0.706984	0.258687	0.707537
C146	C	0.759086	0.173757	0.766396
H147	H	0.743479	0.148043	0.729872
H148	H	0.763585	0.142358	0.858497
H149	H	0.812325	0.162192	0.758416
H150	H	0.633807	1.058906	-0.671262
O151	O	0.935459	0.258755	-0.115467
C152	C	0.898054	0.223710	-0.072371
H153	H	0.903128	0.205507	0.016960
H154	H	0.921067	0.167113	-0.072534
H155	H	0.839722	0.270170	-0.126688
H156	H	0.196243	1.003921	-0.478078
O157	O	0.633782	0.198988	0.686240
C158	C	0.663315	0.128849	0.686097
H159	H	0.658263	0.147144	0.596731
H160	H	0.633859	0.099506	0.721336
H161	H	0.721703	0.083184	0.740107
O162	O	0.451442	0.889307	0.115544
C163	C	0.444452	0.929048	0.167283
H164	H	0.390364	0.990486	0.121315
H165	H	0.487927	0.939492	0.164127
H166	H	0.449414	0.889303	0.258240
H167	H	0.566451	1.003943	-0.690813
H168	H	0.728997	-0.201267	0.150364
H169	H	0.591055	0.633743	-0.441031
H170	H	1.058907	0.208598	-0.000114
H171	H	0.826625	0.373549	-0.106380
H172	H	0.208572	1.058935	-0.671238
O173	O	0.305043	0.780148	-0.115441
C174	C	0.267667	0.825300	-0.072330
H175	H	0.234209	0.804193	-0.029416
H176	H	0.231640	0.893212	-0.143646
H177	H	0.306927	0.815007	-0.009068
O178	O	1.081940	0.258682	0.115426
C179	C	1.133962	0.198704	0.102811
H180	H	1.110323	0.172214	0.081215
H181	H	1.180705	0.147696	0.184370
H182	H	1.152925	0.227699	0.032651
H183	H	0.330890	1.003965	-0.690797
H184	H	0.961341	0.373518	0.106279
O185	O	0.706829	0.378392	0.518865
C186	C	0.679534	0.413441	0.577917
H187	H	0.622960	0.431626	0.569932
H188	H	0.679622	0.470050	0.541559
H189	H	0.713949	0.366991	0.670007
H190	H	0.330958	1.003920	0.106333
H191	H	0.701113	0.893961	-0.304529
H192	H	0.566410	0.263553	0.478174
O193	O	0.560570	0.378156	0.287879
C194	C	0.527801	0.338409	0.298944
H195	H	0.556914	0.276981	0.384353
H196	H	0.529804	0.327944	0.230327
H197	H	0.470189	0.378161	0.291099
O198	O	0.451416	0.889279	-0.519094
C199	C	0.444409	0.929055	-0.633580
H200	H	0.390311	0.954039	-0.684597
H201	H	0.487867	0.883594	-0.646946
H202	H	0.449383	0.981696	-0.661775
H203	H	0.440873	0.499061	0.106286
H204	H	0.538540	-0.010798	-0.150384
H205	H	0.208615	1.058930	0.000022
O206	O	0.962506	0.378188	0.287816
C207	C	1.035016	0.338399	0.298848
H208	H	1.067340	0.313496	0.384194
H209	H	1.043468	0.383830	0.230135
H210	H	1.052872	0.285700	0.291134
H211	H	0.936634	0.263559	0.690756
H212	H	0.591049	0.633752	-0.559020
H213	H	0.196230	1.003960	-0.106308
H214	H	1.058950	0.208599	0.671195
H215	H	0.306182	0.893981	-0.106326
O216	O	1.081888	0.258924	0.476397
C217	C	1.119174	0.273736	0.528238
H218	H	1.079844	0.326850	0.532675
H219	H	1.152669	0.289814	0.477456
H220	H	1.155161	0.216524	0.616499
O221	O	0.706975	1.008610	-0.476223
C222	C	0.739732	0.968847	-0.361738
H223	H	0.710609	0.943875	-0.310723
H224	H	0.737730	1.014315	-0.348389
H225	H	0.797344	0.916200	-0.333527
O226	O	0.560515	0.889261	-0.518776
C227	C	0.508400	0.904122	-0.466971
H228	H	0.524022	0.911631	-0.401721
H229	H	0.503860	0.850316	-0.424522
H230	H	0.455177	0.962434	-0.532777
O231	O	0.737182	0.274764	0.163499
C232	C	0.733857	0.228002	0.269595
H233	H	0.678494	0.242053	0.260016
H234	H	0.745829	0.244054	0.325879
H235	H	0.774560	0.160088	0.308682
O236	O	0.530260	0.112142	-0.163517
C237	C	0.483922	0.118727	-0.236656
H238	H	0.512199	0.060127	-0.232706
H239	H	0.466990	0.172946	-0.325830
H240	H	0.435107	0.128433	-0.210578
O241	O	-0.183932	0.780126	-0.115418
C242	C	-0.191695	0.825294	-0.072342
H243	H	-0.153315	0.781858	0.016981
H244	H	-0.248393	0.858967	-0.072492
H245	H	-0.179653	0.871582	-0.126681
H246	H	0.728992	0.168328	0.150338
O247	O	0.530335	0.481757	-0.163552
C248	C	0.533669	0.498863	-0.269641
H249	H	0.589035	0.451484	-0.260052
H250	H	0.521697	0.562535	-0.325928
H251	H	0.492971	0.496403	-0.308732
O252	O	0.332060	0.487351	0.115657
C253	C	0.369432	0.442188	0.230057
H254	H	0.402893	0.463286	0.239663
H255	H	0.405455	0.374278	0.265946
H256	H	0.330169	0.452478	0.277068
O257	O	0.081926	0.487457	0.115566
C258	C	0.119200	0.483009	0.197830
H259	H	0.096053	0.547464	0.173199
H260	H	0.177533	0.451592	0.204922
H261	H	0.114154	0.446377	0.281886
O262	O	0.185675	0.780147	-0.115705
C263	C	0.177909	0.825297	-0.230097
H264	H	0.232475	0.804190	-0.239677
H265	H	0.146024	0.893210	-0.266000
H266	H	0.148947	0.815002	-0.277115
O267	O	-0.037738	0.487480	0.115468
C268	C	-0.105695	0.503398	0.102885
H269	H	-0.145871	0.567195	0.081312
H270	H	-0.105027	0.455986	0.184449
H271	H	-0.121139	0.499883	0.032720
O272	O	-0.064417	0.780078	-0.115377
C273	C	-0.031565	0.784511	-0.040143
H274	H	-0.028771	0.742383	0.048145
H275	H	-0.063706	0.850167	-0.065538
H276	H	0.024346	0.764569	-0.042199
