data_functionalizedCrystal
_audit_creation_method	'MofGen! by Chris Wilmer'
_symmetry_space_group_name_H-M	'P1'
_symmetry_Int_Tables_number	1
_symmetry_cell_setting	triclinic
loop_
_symmetry_equiv_pos_as_xyz
  x,y,z
_cell_length_a	8.597226
_cell_length_b	10.723024
_cell_length_c	9.198806
_cell_angle_alpha	90.005660
_cell_angle_beta	82.296233
_cell_angle_gamma	95.097450
loop_
_atom_site_label
_atom_site_type_symbol
_atom_site_fract_x
_atom_site_fract_y
_atom_site_fract_z
O1	O	-2.084447	0.186325	0.382030
O2	O	-1.627664	0.200604	0.324806
O3	O	-1.866592	0.011946	0.354732
O4	O	-1.845519	0.374984	0.352103
O5	O	-1.866591	0.011930	0.112947
O6	O	-1.627663	0.200589	0.083021
O7	O	-2.084447	0.186310	0.140245
Cu8	Cu	-1.856055	0.193448	0.089556
Cu9	Cu	-1.856056	0.193466	0.375495
O10	O	-1.845519	0.374969	0.110318
C11	C	-1.569175	0.199060	0.196586
C12	C	-1.394898	0.194468	0.174754
C13	C	-1.865058	-0.034570	0.233650
C14	C	-1.860470	-0.173149	0.233080
C15	C	-1.994162	-0.247407	0.249830
C16	C	-1.989423	-0.390636	0.249242
C17	C	-1.142936	0.187851	0.268461
C18	C	-1.317215	0.192433	0.290282
C19	C	-1.847052	0.421484	0.231404
C20	C	-1.851641	0.560063	0.231984
N21	N	-1.856057	0.193470	0.576609
N22	N	-1.856066	0.193435	-0.111557
C23	C	-1.755329	0.272664	0.803629
C24	C	-1.755323	0.272683	0.636216
H25	H	-1.384042	0.194205	0.405892
H26	H	-2.112128	-0.204946	0.264599
H27	H	-1.669093	0.340487	0.854954
H28	H	-1.669072	0.340511	0.563326
H29	H	-2.103873	-0.454449	0.263575
H30	H	-1.942312	0.125622	0.837118
C31	C	-1.701094	-0.230497	0.213117
C32	C	-1.583816	-0.201868	0.323977
C33	C	-1.424435	-0.259212	0.304013
C34	C	-1.382332	-0.345184	0.173190
C35	C	-1.499613	-0.373816	0.062321
C36	C	-1.658994	-0.316473	0.082284
H37	H	-1.614981	-0.138223	0.420828
H38	H	-1.337616	-0.238016	0.386086
H39	H	-1.264349	-0.387633	0.158412
H40	H	-1.468449	-0.437462	-0.034531
H41	H	-1.745813	-0.337669	0.000211
H42	H	-1.328077	0.192711	0.059151
H43	H	-1.737184	-0.376132	0.217633
H44	H	-1.942301	0.125630	0.649488
