data_functionalizedCrystal
_audit_creation_method	'MofGen! by Chris Wilmer'
_symmetry_space_group_name_H-M	'P1'
_symmetry_Int_Tables_number	1
_symmetry_cell_setting	triclinic
loop_
_symmetry_equiv_pos_as_xyz
  x,y,z
_cell_length_a	15.995350
_cell_length_b	15.995350
_cell_length_c	13.448316
_cell_angle_alpha	89.995627
_cell_angle_beta	89.996887
_cell_angle_gamma	83.492375
loop_
_atom_site_label
_atom_site_type_symbol
_atom_site_fract_x
_atom_site_fract_y
_atom_site_fract_z
O1	O	1.110988	0.107929	-0.082603
O2	O	0.867213	0.121256	-0.082622
O3	O	0.995764	-0.007295	-0.082611
O4	O	0.982437	0.236480	-0.082614
O5	O	0.995748	-0.007303	0.082773
O6	O	0.867197	0.121248	0.082761
O7	O	1.110972	0.107921	0.082781
Cu8	Cu	0.989083	0.114584	0.097872
Cu9	Cu	0.989102	0.114593	-0.097713
O10	O	0.982421	0.236472	0.082770
C11	C	0.836010	0.120701	0.000067
C12	C	0.743060	0.119049	0.000059
C13	C	0.995205	-0.038494	0.000079
C14	C	0.993553	-0.131444	0.000073
C15	C	0.405312	0.113117	0.000080
C16	C	0.452746	0.021565	0.000450
C17	C	0.549436	0.023217	0.000070
C18	C	0.572873	0.116060	0.000070
C19	C	0.531795	0.161221	-0.094369
C20	C	0.435159	0.158921	-0.094441
C21	C	0.434802	0.160803	0.093631
C22	C	0.531747	0.160782	0.094873
C23	C	0.667570	0.117727	0.000061
C24	C	0.310614	0.111452	0.000082
C25	C	0.987621	-0.469192	0.000076
C26	C	0.896069	-0.421758	-0.000302
C27	C	0.897721	-0.325068	0.000071
C28	C	0.990564	-0.301631	0.000074
C29	C	1.035711	-0.342713	0.094518
C30	C	1.033411	-0.439349	0.094597
C31	C	1.035321	-0.439698	-0.093475
C32	C	1.035299	-0.342753	-0.094723
C33	C	0.992231	-0.206934	0.000076
C34	C	0.985956	-0.563890	0.000080
C35	C	1.142175	0.108476	0.000090
C36	C	1.235125	0.110127	0.000091
C37	C	0.982980	0.267671	0.000078
C38	C	0.984631	0.360621	0.000077
N39	N	0.989076	0.114577	0.235436
N40	N	0.989116	0.114593	-0.235278
C41	C	1.046016	0.057677	0.287482
C42	C	1.046021	0.057677	0.391585
C43	C	0.989089	0.114580	0.443641
C44	C	0.932143	0.171482	0.391588
C45	C	0.932134	0.171478	0.287487
C46	C	0.932166	0.171487	0.608568
C47	C	0.932176	0.171493	0.712677
C48	C	1.046053	0.057686	0.712666
C49	C	1.046044	0.057682	0.608565
C50	C	0.989099	0.114586	0.556520
H51	H	0.434217	-0.015034	0.068176
C52	C	0.849559	-0.287519	0.091809
C53	C	0.895042	-0.238562	0.169781
C54	C	0.846934	-0.201061	0.261585
C55	C	0.753343	-0.212517	0.275417
C56	C	0.707855	-0.261475	0.197443
C57	C	0.755963	-0.298976	0.105638
H58	H	0.964329	-0.230080	0.159544
H59	H	0.880608	-0.164819	0.319307
H60	H	0.717731	-0.184756	0.343376
H61	H	0.638569	-0.269957	0.207680
H62	H	0.722289	-0.335219	0.047916
H63	H	1.092379	0.011344	0.245105
H64	H	0.577301	-0.012515	-0.067745
H65	H	0.859633	-0.441355	0.067042
C66	C	1.108668	-0.004909	0.551298
C67	C	1.107272	-0.100260	0.565616
C68	C	1.169894	-0.162853	0.508348
C69	C	1.233913	-0.130095	0.436761
C70	C	1.235312	-0.034739	0.422440
C71	C	1.172689	0.027854	0.479709
H72	H	1.059879	-0.124513	0.618612
H73	H	1.168858	-0.233441	0.518949
H74	H	1.280270	-0.176430	0.394368
H75	H	1.282705	-0.010486	0.369445
H76	H	1.173725	0.098442	0.469107
H77	H	1.004341	-0.314335	0.164798
C78	C	1.108690	-0.004911	0.769915
C79	C	1.108697	-0.004912	0.884422
C80	C	1.171334	-0.067503	0.941677
C81	C	1.233965	-0.130092	0.884424
C82	C	1.233960	-0.130093	0.769910
C83	C	1.171323	-0.067502	0.712656
H84	H	1.062332	0.041422	0.926810
H85	H	1.171338	-0.067502	1.026448
H86	H	1.280333	-0.176425	0.926807
H87	H	1.280325	-0.176427	0.727522
H88	H	1.171320	-0.067503	0.627885
H89	H	0.433159	-0.014859	-0.066902
C90	C	0.869544	0.234082	0.769936
C91	C	0.806901	0.296663	0.712685
C92	C	0.744268	0.359253	0.769941
C93	C	0.744276	0.359263	0.884448
C94	C	0.806921	0.296680	0.941706
C95	C	0.869555	0.234090	0.884449
H96	H	0.806893	0.296657	0.627914
H97	H	0.697894	0.405581	0.727555
H98	H	0.697911	0.405596	0.926833
H99	H	0.806930	0.296686	1.026477
H100	H	0.915929	0.187762	0.926836
H101	H	1.002291	-0.315501	-0.164590
C102	C	1.126508	-0.482607	-0.094334
C103	C	1.158229	-0.539211	-0.182261
C104	C	1.249412	-0.582124	-0.183107
C105	C	1.308874	-0.568434	-0.096027
C106	C	1.277154	-0.511828	-0.008093
C107	C	1.185971	-0.468914	-0.007247
H108	H	1.114211	-0.549347	-0.246729
H109	H	1.272893	-0.624028	-0.248202
H110	H	1.376373	-0.600201	-0.096653
H111	H	1.321173	-0.501691	0.056375
H112	H	1.162491	-0.427010	0.057848
H113	H	0.885784	0.217811	0.433978
H114	H	0.862232	-0.296642	-0.067631
H115	H	1.005395	-0.460235	-0.165058
H116	H	1.103919	-0.328588	0.098033
C117	C	0.550878	0.253366	-0.099126
C118	C	0.516732	0.310115	-0.185893
C119	C	0.535817	0.402260	-0.190648
C120	C	0.589049	0.437655	-0.108638
C121	C	0.623199	0.380905	-0.021865
C122	C	0.604114	0.288760	-0.017109
H123	H	0.477323	0.283915	-0.246607
H124	H	0.510537	0.444270	-0.254884
H125	H	0.603177	0.505866	-0.112158
H126	H	0.662607	0.407105	0.038850
H127	H	0.629394	0.246750	0.047126
H128	H	0.416857	0.125994	-0.165036
H129	H	0.859483	-0.440286	-0.068030
H130	H	0.402911	0.226137	-0.098727
H131	H	0.885792	0.217821	0.566196
H132	H	1.103004	-0.327391	-0.100423
C133	C	1.124209	-0.482925	0.100412
C134	C	1.180204	-0.466659	0.189905
C135	C	1.270998	-0.510232	0.195730
C136	C	1.305797	-0.570072	0.112061
C137	C	1.249801	-0.586341	0.022561
C138	C	1.159007	-0.542768	0.016737
H139	H	1.154444	-0.422359	0.251847
H140	H	1.312450	-0.498188	0.261984
H141	H	1.373008	-0.602327	0.116373
H142	H	1.275560	-0.630641	-0.039381
H143	H	1.117555	-0.554812	-0.049517
H144	H	0.560176	0.129860	-0.164652
C145	C	0.407061	0.120363	0.190339
C146	C	0.357265	0.043515	0.185593
C147	C	0.329524	0.003065	0.282294
C148	C	0.351580	0.039462	0.383740
C149	C	0.401379	0.116314	0.388489
C150	C	0.429119	0.156765	0.291789
H151	H	0.340935	0.016568	0.110493
H152	H	0.292660	-0.053826	0.278778
H153	H	0.331045	0.009518	0.455324
H154	H	0.417709	0.143261	0.463589
H155	H	0.465984	0.213656	0.295305
C156	C	0.568838	0.116180	0.189123
C157	C	0.664003	0.110976	0.209632
C158	C	0.701202	0.066344	0.303813
C159	C	0.643237	0.026915	0.377486
C160	C	0.548066	0.032117	0.356979
C161	C	0.510867	0.076750	0.262797
H162	H	0.706918	0.140165	0.155094
H163	H	0.771654	0.062493	0.318994
H164	H	0.670774	-0.006125	0.447204
H165	H	0.505152	0.002929	0.411517
H166	H	0.440415	0.080601	0.247617
H167	H	0.577859	-0.012281	0.067768
H168	H	0.547112	0.228485	0.100577
H169	H	0.403040	0.228304	0.094270
H170	H	1.000476	-0.457654	0.165193
H171	H	0.885767	0.217810	0.245113
H172	H	1.092385	0.011345	0.433960
