data_functionalizedCrystal
_audit_creation_method	'MofGen! by Chris Wilmer'
_symmetry_space_group_name_H-M	'P1'
_symmetry_Int_Tables_number	1
_symmetry_cell_setting	triclinic
loop_
_symmetry_equiv_pos_as_xyz
  x,y,z
_cell_length_a	15.944493
_cell_length_b	11.792254
_cell_length_c	10.268362
_cell_angle_alpha	90.001515
_cell_angle_beta	90.004046
_cell_angle_gamma	83.836821
loop_
_atom_site_label
_atom_site_type_symbol
_atom_site_fract_x
_atom_site_fract_y
_atom_site_fract_z
O1	O	1.115219	0.146060	0.108284
O2	O	0.870745	0.164175	0.108290
O3	O	0.998909	-0.010103	0.108277
O4	O	0.987055	0.320338	0.108296
O5	O	0.998897	-0.010097	-0.108323
O6	O	0.870733	0.164181	-0.108311
O7	O	1.115207	0.146066	-0.108317
Cu8	Cu	0.992969	0.155124	-0.128091
Cu9	Cu	0.992983	0.155117	0.128064
O10	O	0.987043	0.320344	-0.108304
C11	C	0.839441	0.163438	-0.000010
C12	C	0.746182	0.161218	-0.000007
C13	C	0.998156	-0.052384	-0.000023
C14	C	0.995921	-0.178378	-0.000021
C15	C	0.994105	-0.280699	-0.000017
C16	C	0.991834	-0.409066	-0.000005
C17	C	0.510889	0.263802	-0.000001
C18	C	0.460073	0.208486	-0.106805
C19	C	0.575442	0.157105	-0.000010
C20	C	0.460089	0.208454	0.106746
C21	C	0.410515	0.153140	-0.000007
C22	C	0.525855	0.101817	-0.106902
C23	C	0.525875	0.101802	0.106745
C24	C	0.475091	0.046407	-0.000085
C25	C	0.670453	0.159392	-0.000013
C26	C	0.315507	0.150844	-0.000014
C27	C	1.146511	0.146803	-0.000015
C28	C	1.239770	0.149023	-0.000008
C29	C	0.987796	0.362625	-0.000002
C30	C	0.990031	0.488619	0.000006
N31	N	0.992965	0.155128	-0.308257
C32	C	0.992971	0.155129	-0.426099
C33	C	0.992981	0.155118	-0.573937
N34	N	0.992994	0.155104	0.308230
H35	H	0.431335	0.253548	-0.197093
H36	H	0.554473	0.056787	-0.197286
O37	O	0.560133	0.048257	0.214592
C38	C	0.565312	0.043951	0.449090
C39	C	0.526460	0.104699	0.327050
H40	H	0.538089	0.089544	0.540044
H41	H	0.636673	0.045507	0.447622
H42	H	0.549892	-0.048235	0.449946
H43	H	0.541815	0.196908	0.326116
H44	H	0.455108	0.103050	0.328566
H45	H	0.459208	-0.045571	-0.000152
O46	O	0.530082	0.373421	0.000118
C47	C	0.598693	0.517212	0.112709
C48	C	0.576995	0.393057	0.112762
H49	H	0.636640	0.533120	0.203758
H50	H	0.537986	0.577849	0.111790
H51	H	0.637569	0.532558	0.022475
H52	H	0.538143	0.377601	0.202981
H53	H	0.637734	0.332484	0.113614
O54	O	0.425684	0.262230	0.214363
C55	C	0.298756	0.319350	0.335587
C56	C	0.337601	0.258428	0.213651
H57	H	0.227538	0.316275	0.335066
H58	H	0.313097	0.412004	0.335445
H59	H	0.326895	0.274798	0.426580
H60	H	0.309486	0.302885	0.122595
H61	H	0.323268	0.165772	0.213908
