data_functionalizedCrystal
_audit_creation_method	'MofGen! by Chris Wilmer'
_symmetry_space_group_name_H-M	'P1'
_symmetry_Int_Tables_number	1
_symmetry_cell_setting	triclinic
loop_
_symmetry_equiv_pos_as_xyz
  x,y,z
_cell_length_a	10.685980
_cell_length_b	16.625545
_cell_length_c	10.685880
_cell_angle_alpha	85.662549
_cell_angle_beta	80.918858
_cell_angle_gamma	85.609419
loop_
_atom_site_label
_atom_site_type_symbol
_atom_site_fract_x
_atom_site_fract_y
_atom_site_fract_z
Zn1	Zn	1.995671	0.265673	-0.866651
Zn2	Zn	1.979228	0.390940	-0.654384
Zn3	Zn	1.767111	0.265715	-0.638123
Zn4	Zn	1.783336	0.410063	-0.850286
O5	O	1.881336	0.333098	-0.752361
O6	O	2.171124	0.274269	-0.852147
O7	O	1.937419	0.366343	-0.474602
O8	O	1.797521	0.152875	-0.668482
O9	O	2.159044	0.366302	-0.696196
O10	O	1.965443	0.152844	-0.836380
O11	O	1.781577	0.274342	-0.462655
O12	O	1.591628	0.292884	-0.652613
O13	O	1.825174	0.398894	-1.030082
O14	O	1.603549	0.398936	-0.808488
O15	O	1.981175	0.292812	-1.042105
O16	O	1.953152	0.506311	-0.680327
O17	O	1.809230	0.520361	-0.824255
C18	C	1.551530	0.347990	-0.727011
C19	C	1.410439	0.354382	-0.716196
C20	C	1.881204	0.542593	-0.752310
C21	C	1.881267	0.632212	-0.752340
C22	C	1.881486	0.960385	-0.752508
C23	C	1.881421	0.869078	-0.752464
C24	C	1.881375	0.796302	-0.752423
C25	C	1.881313	0.704988	-0.752381
C26	C	2.212431	0.318148	-0.777811
C27	C	2.353523	0.311777	-0.788656
C28	C	1.906819	0.347981	-1.083437
C29	C	1.917678	0.354324	-1.224523
C30	C	1.881496	1.122786	-0.752456
C31	C	1.881540	1.033166	-0.752533
C32	C	1.856026	0.318211	-0.422578
C33	C	1.845413	0.311630	-0.281513
H34	H	1.351222	0.395751	-0.645876
H35	H	1.412733	0.270405	-0.858963
H36	H	1.775227	0.270228	-1.222369
H37	H	1.987863	0.395732	-1.283672
