data_functionalizedCrystal
_audit_creation_method	'MofGen! by Chris Wilmer'
_symmetry_space_group_name_H-M	'P1'
_symmetry_Int_Tables_number	1
_symmetry_cell_setting	triclinic
loop_
_symmetry_equiv_pos_as_xyz
  x,y,z
_cell_length_a	8.559649
_cell_length_b	8.559649
_cell_length_c	7.681481
_cell_angle_alpha	85.068589
_cell_angle_beta	94.912990
_cell_angle_gamma	69.778664
loop_
_atom_site_label
_atom_site_type_symbol
_atom_site_fract_x
_atom_site_fract_y
_atom_site_fract_z
O1	O	2.109660	-0.037796	-0.146412
O2	O	1.634174	0.045986	-0.146417
O3	O	1.913808	-0.233648	-0.146410
O4	O	1.830026	0.241838	-0.146419
O5	O	1.948235	-0.268136	0.146449
O6	O	1.668601	0.011498	0.146442
O7	O	2.144087	-0.072283	0.146447
Zn8	Zn	1.911810	-0.035868	0.192942
Zn9	Zn	1.866451	0.009571	-0.192912
O10	O	1.864453	0.207350	0.146440
C11	C	1.937371	-0.311200	0.000017
C12	C	1.956269	-0.490899	0.000009
C13	C	1.591079	0.035091	0.000012
C14	C	1.411379	0.053991	0.000010
C15	C	2.187182	-0.061388	0.000015
C16	C	2.366880	-0.080286	0.000005
C17	C	1.840890	0.284903	0.000009
C18	C	1.821990	0.464603	0.000005
N19	N	1.942778	-0.066882	0.456277
N20	N	1.835497	0.040570	-0.456247
H21	H	2.085689	-0.590278	0.000017
C22	C	2.499132	-0.253004	-0.000076
C23	C	2.422063	-0.373081	-0.000127
C24	C	2.543834	-0.532199	-0.000226
H25	H	2.578607	-0.278352	0.102026
H26	H	2.554523	-0.254145	-0.102240
H27	H	2.366699	-0.371945	0.102027
H28	H	2.342599	-0.347789	-0.102221
H29	H	2.599226	-0.533340	-0.102391
H30	H	2.623302	-0.557530	0.101877
H31	H	2.491559	-0.613689	-0.000278
H32	H	1.692564	-0.436010	0.000018
H33	H	1.725987	0.150246	0.468553
H34	H	2.311999	0.183412	-0.000006
H35	H	2.052306	-0.176555	0.531486
