data_functionalizedCrystal
_audit_creation_method	'MofGen! by Chris Wilmer'
_symmetry_space_group_name_H-M	'P1'
_symmetry_Int_Tables_number	1
_symmetry_cell_setting	triclinic
loop_
_symmetry_equiv_pos_as_xyz
  x,y,z
_cell_length_a	19.077105
_cell_length_b	13.032721
_cell_length_c	19.076919
_cell_angle_alpha	99.138159
_cell_angle_beta	90.076224
_cell_angle_gamma	95.201395
loop_
_atom_site_label
_atom_site_type_symbol
_atom_site_fract_x
_atom_site_fract_y
_atom_site_fract_z
Zn1	Zn	1.013397	-0.505360	-0.481832
Zn2	Zn	1.003124	-0.673317	-0.378090
Zn3	Zn	0.901858	-0.491366	-0.358479
Zn4	Zn	0.881001	-0.672687	-0.490791
O5	O	0.949845	-0.585683	-0.427298
O6	O	1.109823	-0.533760	-0.472529
O7	O	0.994119	-0.643588	-0.276699
O8	O	0.929682	-0.347048	-0.362886
O9	O	1.102275	-0.657157	-0.396309
O10	O	1.011630	-0.357329	-0.453513
O11	O	0.919720	-0.509909	-0.262291
O12	O	0.801303	-0.509299	-0.371572
O13	O	0.894135	-0.656084	-0.588392
O14	O	0.785980	-0.642515	-0.468781
O15	O	0.991406	-0.533149	-0.581810
O16	O	0.973896	-0.819408	-0.404996
O17	O	0.884173	-0.818945	-0.487797
C18	C	0.768286	-0.574321	-0.419021
C19	C	0.690611	-0.569486	-0.415499
C20	C	0.646154	-0.636670	-0.464393
C21	C	0.573171	-0.632114	-0.461086
C22	C	0.544646	-0.560378	-0.408881
C23	C	0.589109	-0.493187	-0.359985
C24	C	0.662091	-0.497739	-0.363296
C25	C	0.327230	-0.539312	-0.393562
C26	C	0.254242	-0.534767	-0.390254
C27	C	0.238309	-0.673693	-0.491357
C28	C	0.311292	-0.678243	-0.494660
C29	C	0.355749	-0.611048	-0.445766
N30	N	0.470046	-0.555721	-0.405499
N31	N	0.430348	-0.615700	-0.449153
C32	C	0.925675	-0.857080	-0.449513
C33	C	0.915397	-0.973191	-0.459043
C34	C	0.955245	-1.025155	-0.422357
C35	C	0.944623	-1.145161	-0.432206
C36	C	1.132113	-0.597090	-0.435607
C37	C	1.209785	-0.601951	-0.439148
C38	C	0.941590	-0.596107	-0.611432
C39	C	0.938072	-0.600549	-0.689899
C40	C	0.974128	-0.313227	-0.405012
C41	C	0.984476	-0.197123	-0.395516
C42	C	0.987061	-0.538633	-0.723338
C43	C	0.983747	-0.542803	-0.797065
C44	C	0.931448	-0.608894	-0.837354
C45	C	0.882454	-0.670812	-0.803910
C46	C	0.885765	-0.666637	-0.730183
C47	C	0.916112	-0.628240	-1.058220
C48	C	0.912806	-0.632414	-1.131952
C49	C	1.014098	-0.504402	-1.125102
C50	C	1.017407	-0.500237	-1.051375
C51	C	0.968412	-0.562151	-1.017937
N52	N	0.928061	-0.613160	-0.912715
N53	N	0.971796	-0.557879	-0.942576
C54	C	0.958115	-0.575226	-0.243875
C55	C	0.961794	-0.570498	-0.165391
H56	H	0.334511	-0.736660	-0.537169
H57	H	0.202105	-0.728397	-0.531164
H58	H	0.536976	-0.686823	-0.500901
O59	O	0.226651	-0.464983	-0.339515
C60	C	0.281537	-0.406667	-0.297059
H61	H	0.332587	-0.407993	-0.328047
H62	H	0.288301	-0.442237	-0.246871
C63	C	0.200694	-0.291499	-0.238557
C64	C	0.263394	-0.293120	-0.276619
H65	H	0.189502	-0.221459	-0.225946
H66	H	0.163715	-0.330789	-0.267159
H67	H	0.206339	-0.321145	-0.196739
H68	H	0.257746	-0.263486	-0.318441
H69	H	0.300372	-0.253822	-0.248024
O70	O	1.037926	-0.474581	-0.684188
C71	C	1.079666	-0.534452	-0.648449
H72	H	1.075658	-0.618251	-0.677592
H73	H	1.060247	-0.533534	-0.591881
C74	C	1.161831	-0.384970	-0.610665
C75	C	1.156913	-0.487891	-0.646462
H76	H	1.209480	-0.356247	-0.609435
H77	H	1.133709	-0.344632	-0.634740
H78	H	1.145645	-0.384219	-0.563528
H79	H	1.173091	-0.488640	-0.693599
H80	H	1.185040	-0.528228	-0.622394
O81	O	0.370471	-0.474193	-0.346043
C82	C	0.409427	-0.533600	-0.307140
H83	H	0.412209	-0.614903	-0.338932
H84	H	0.382619	-0.540247	-0.254467
C85	C	0.481017	-0.379829	-0.253802
C86	C	0.484440	-0.479684	-0.292852
H87	H	0.527288	-0.346570	-0.244985
H88	H	0.454770	-0.339804	-0.280010
H89	H	0.458674	-0.385382	-0.209913
H90	H	0.506774	-0.474129	-0.336743
H91	H	0.510692	-0.519707	-0.266651
O92	O	0.868571	-0.688534	-1.025799
C93	C	0.873732	-0.794621	-1.053038
H94	H	0.928182	-0.804554	-1.076271
H95	H	0.831922	-0.821989	-1.096368
C96	C	0.795420	-0.847919	-0.964345
C97	C	0.862299	-0.860120	-0.992874
H98	H	0.788365	-0.888323	-0.927234
H99	H	0.791941	-0.776446	-0.945994
H100	H	0.760586	-0.870724	-1.000459
H101	H	0.897132	-0.837302	-0.956762
H102	H	0.865784	-0.931590	-1.011217
H103	H	1.059997	-0.446421	-1.018577
O104	O	0.838150	-0.726899	-0.697816
C105	C	0.791272	-0.786117	-0.749182
H106	H	0.817209	-0.794490	-0.803341
H107	H	0.741250	-0.745000	-0.751467
C108	C	0.740740	-0.884754	-0.662526
C109	C	0.772600	-0.895044	-0.729044
H110	H	0.729220	-0.951944	-0.650103
H111	H	0.772321	-0.844855	-0.627919
H112	H	0.699060	-0.850485	-0.664438
H113	H	0.814284	-0.929300	-0.727129
H114	H	0.741026	-0.934951	-0.763651
O115	O	1.005232	-0.972190	-0.376104
C116	C	0.973069	-0.904067	-0.323539
H117	H	0.915330	-0.933400	-0.319315
H118	H	0.976928	-0.822494	-0.338521
C119	C	1.081632	-0.864193	-0.256775
C120	C	1.010718	-0.900225	-0.251583
H121	H	1.104857	-0.861819	-0.212390
H122	H	1.103302	-0.910086	-0.292190
H123	H	1.084838	-0.796219	-0.269262
H124	H	1.007512	-0.968203	-0.239105
H125	H	0.989048	-0.854344	-0.216164
O126	O	0.705177	-0.432439	-0.315722
C127	C	0.664353	-0.368131	-0.268943
H128	H	0.608631	-0.407524	-0.267595
H129	H	0.662494	-0.289839	-0.288040
C130	C	0.765983	-0.302048	-0.195526
C131	C	0.697545	-0.350435	-0.193865
H132	H	0.786458	-0.291128	-0.149215
H133	H	0.793487	-0.345370	-0.227043
H134	H	0.764424	-0.236810	-0.211443
H135	H	0.699106	-0.415677	-0.177957
H136	H	0.670042	-0.307124	-0.162344
H137	H	0.669372	-0.695088	-0.506902
O138	O	1.034468	-1.144167	-0.349258
C139	C	1.002307	-1.076045	-0.296691
H140	H	0.944567	-1.105373	-0.292469
H141	H	1.006170	-0.994470	-0.311669
C142	C	1.110870	-1.036188	-0.229926
C143	C	1.039954	-1.072214	-0.224736
H144	H	1.134094	-1.033820	-0.185541
H145	H	1.132538	-1.082080	-0.265342
H146	H	1.114079	-0.968211	-0.242410
H147	H	1.036746	-1.140194	-0.212261
H148	H	1.018286	-1.026333	-0.189315
H149	H	1.053987	-0.453994	-1.152335
O150	O	0.894552	-1.198222	-0.478328
C151	C	0.895102	-1.306230	-0.477904
H152	H	0.919174	-1.319377	-0.425693
H153	H	0.927690	-1.341816	-0.524021
C154	C	0.789601	-1.342235	-0.549801
C155	C	0.819161	-1.358382	-0.485671
H156	H	0.742758	-1.374407	-0.554595
H157	H	0.789231	-1.269468	-0.550088
H158	H	0.816764	-1.371890	-0.588224
H159	H	0.792003	-1.328716	-0.447249
H160	H	0.819525	-1.431146	-0.485377
H161	H	0.565879	-0.434774	-0.317481
H162	H	0.873422	-1.017547	-0.497745
H163	H	1.023640	-0.492387	-0.824288
H164	H	0.839869	-0.724621	-0.836718
H165	H	0.870215	-0.686236	-1.164753
