data_functionalizedCrystal
_audit_creation_method	'MofGen! by Chris Wilmer'
_symmetry_space_group_name_H-M	'P1'
_symmetry_Int_Tables_number	1
_symmetry_cell_setting	triclinic
loop_
_symmetry_equiv_pos_as_xyz
  x,y,z
_cell_length_a	21.295418
_cell_length_b	21.295417
_cell_length_c	18.215399
_cell_angle_alpha	89.967848
_cell_angle_beta	89.961117
_cell_angle_gamma	90.046319
loop_
_atom_site_label
_atom_site_type_symbol
_atom_site_fract_x
_atom_site_fract_y
_atom_site_fract_z
Zn1	Zn	0.962326	-0.250350	-0.416469
Zn2	Zn	1.462326	0.249650	0.083531
Zn3	Zn	0.962237	-0.355621	-0.293393
Zn4	Zn	1.462237	0.144379	0.206607
Zn5	Zn	0.857058	-0.250399	-0.293375
Zn6	Zn	1.357058	0.249601	0.206625
Zn7	Zn	0.857018	-0.355614	-0.416377
Zn8	Zn	1.357018	0.144386	0.083623
O9	O	0.909660	-0.302996	-0.354904
O10	O	1.409660	0.197004	0.145096
O11	O	1.050403	-0.264297	-0.400188
O12	O	1.550403	0.235703	0.099812
O13	O	0.948264	-0.341686	-0.190407
O14	O	1.448264	0.158314	0.309593
O15	O	0.871075	-0.162303	-0.309734
O16	O	1.371075	0.337697	0.190266
O17	O	1.050338	-0.341639	-0.309765
O18	O	1.550338	0.158361	0.190235
O19	O	0.948415	-0.162267	-0.400171
O20	O	1.448415	0.337733	0.099829
O21	O	0.870989	-0.264380	-0.190393
O22	O	1.370989	0.235620	0.309607
O23	O	0.768963	-0.264373	-0.309646
O24	O	1.268963	0.235627	0.190354
O25	O	0.871008	-0.341627	-0.519374
O26	O	1.371008	0.158373	-0.019374
O27	O	0.768934	-0.341675	-0.400015
O28	O	1.268934	0.158325	0.099985
O29	O	0.948377	-0.264290	-0.519441
O30	O	1.448377	0.235710	-0.019441
O31	O	0.948226	-0.443710	-0.309677
O32	O	1.448226	0.056290	0.190323
O33	O	0.870922	-0.443705	-0.400033
O34	O	1.370922	0.056295	0.099967
C35	C	0.746108	-0.303029	-0.354819
C36	C	1.246108	0.196971	0.145181
C37	C	0.676140	-0.303058	-0.354800
C38	C	1.176140	0.196942	0.145200
C39	C	0.643275	-0.343363	-0.401785
C40	C	1.143275	0.156637	0.098215
C41	C	0.577532	-0.343347	-0.401818
C42	C	1.077532	0.156653	0.098182
C43	C	0.544657	-0.303034	-0.354853
C44	C	1.044657	0.196966	0.145147
C45	C	0.577531	-0.262722	-0.307865
C46	C	1.077531	0.237278	0.192135
C47	C	0.643272	-0.262734	-0.307838
C48	C	1.143272	0.237266	0.192162
N49	N	0.441386	-0.298117	-0.290486
N50	N	0.941386	0.201883	0.209514
N51	N	0.378935	-0.298109	-0.290513
N52	N	0.878935	0.201891	0.209487
C53	C	0.346583	-0.302994	-0.354931
C54	C	0.846583	0.197006	0.145069
N55	N	0.379042	-0.307899	-0.419322
N56	N	0.879042	0.192101	0.080678
N57	N	0.441499	-0.307910	-0.419294
N58	N	0.941499	0.192090	0.080706
C59	C	0.473372	-0.303016	-0.354877
C60	C	0.973372	0.196984	0.145123
C61	C	0.242432	-0.343283	-0.401956
C62	C	0.742432	0.156717	0.098044
C63	C	0.176688	-0.343263	-0.401990
C64	C	0.676688	0.156737	0.098010
C65	C	0.176688	-0.262642	-0.308030
C66	C	0.676688	0.237358	0.191970
C67	C	0.242430	-0.262658	-0.308003
C68	C	0.742430	0.237342	0.191997
C69	C	0.275298	-0.302983	-0.354964
C70	C	0.775298	0.197017	0.145036
C71	C	0.909577	-0.466548	-0.354863
C72	C	1.409577	0.033452	0.145137
C73	C	0.909599	-0.536516	-0.354870
C74	C	1.409599	-0.036516	0.145130
C75	C	0.949887	-0.569364	-0.307870
C76	C	1.449887	-0.069364	0.192130
C77	C	0.949917	-0.635107	-0.307886
C78	C	1.449917	-0.135107	0.192114
C79	C	0.909647	-0.667998	-0.354895
C80	C	1.409647	-0.167998	0.145105
C81	C	0.869357	-0.635142	-0.401904
C82	C	1.369357	-0.135142	0.098096
C83	C	0.869333	-0.569401	-0.401892
C84	C	1.369333	-0.069401	0.098108
N85	N	0.854580	-0.771279	-0.360477
N86	N	1.354580	-0.271279	0.139523
N87	N	0.854604	-0.833731	-0.360485
N88	N	1.354604	-0.333731	0.139515
C89	C	0.909718	-0.866073	-0.354938
C90	C	1.409718	-0.366073	0.145062
N91	N	0.964807	-0.833604	-0.349368
N92	N	1.464807	-0.333604	0.150632
N93	N	0.964782	-0.771147	-0.349356
N94	N	1.464782	-0.271147	0.150644
C95	C	0.909669	-0.739284	-0.354915
C96	C	1.409669	-0.239284	0.145085
C97	C	0.950041	-0.970207	-0.307953
C98	C	1.450041	-0.470207	0.192047
C99	C	0.950071	-1.035950	-0.307975
C100	C	1.450071	-0.535950	0.192025
C101	C	0.869506	-1.035985	-0.401989
C102	C	1.369506	-0.535985	0.098011
C103	C	0.869481	-0.970242	-0.401971
C104	C	1.369481	-0.470242	0.098029
C105	C	0.909747	-0.937357	-0.354949
C106	C	1.409747	-0.437357	0.145051
C107	C	1.073850	-0.302963	-0.354989
C108	C	1.573850	0.197037	0.145011
C109	C	1.143818	-0.302949	-0.355025
C110	C	1.643818	0.197051	0.144975
C111	C	0.909698	-0.302953	-0.546857
C112	C	1.409698	0.197047	-0.046857
C113	C	0.909714	-0.302934	-0.628655
C114	C	1.409714	0.197066	-0.128655
C115	C	0.909760	-0.138806	-0.354961
C116	C	1.409760	0.361194	0.145039
C117	C	0.909802	-0.068838	-0.354985
C118	C	1.409802	0.431162	0.145015
C119	C	0.950015	-0.262627	-0.816886
C120	C	1.450015	0.237373	-0.316886
C121	C	0.950022	-0.262609	-0.893744
C122	C	1.450022	0.237391	-0.393744
C123	C	0.869458	-0.343144	-0.893663
C124	C	1.369458	0.156856	-0.393663
C125	C	0.869448	-0.343159	-0.816806
C126	C	1.369448	0.156841	-0.316806
C127	C	0.909730	-0.302901	-0.778419
C128	C	1.409730	0.197099	-0.278419
C129	C	0.909748	-0.302868	-0.932135
C130	C	1.409748	0.197132	-0.432135
C131	C	0.909756	-0.302848	-1.015469
C132	C	1.409756	0.197152	-0.515469
C133	C	0.909721	-0.302920	-0.695080
C134	C	1.409721	0.197080	-0.195080
C135	C	0.909658	-0.302994	-0.163697
C136	C	1.409658	0.197006	0.336303
C137	C	0.909763	-0.302835	-0.081899
C138	C	1.409763	0.197165	0.418101
H139	H	0.550760	-0.229898	-0.269627
H140	H	1.050760	0.270102	0.230373
H141	H	0.982676	-0.542591	-0.269584
H142	H	1.482676	-0.042591	0.230416
O143	O	0.993488	-0.934740	-0.257253
O144	O	1.493488	-0.434740	0.242747
H145	H	1.025481	-0.904732	-0.290244
H146	H	1.525481	-0.404732	0.209756
H147	H	0.982883	-1.062694	-0.269703
H148	H	1.482883	-0.562694	0.230297
O149	O	0.825983	-0.386596	-0.775323
O150	O	1.325983	0.113404	-0.275323
H151	H	0.854123	-0.418626	-0.740301
H152	H	1.354123	0.081374	-0.240301
O153	O	0.993474	-0.219165	-0.935226
O154	O	1.493474	0.280835	-0.435226
H155	H	0.965320	-0.187131	-0.970226
H156	H	1.465320	0.312869	-0.470226
O157	O	0.678723	-0.386845	-0.452446
O158	O	1.178723	0.113155	0.047554
H159	H	0.666041	-0.436234	-0.439728
H160	H	1.166041	0.063766	0.060272
H161	H	0.670030	-0.229912	-0.269577
H162	H	1.170030	0.270088	0.230423
O163	O	0.826021	-0.934811	-0.452662
O164	O	1.326021	-0.434811	0.047338
H165	H	0.832773	-0.883572	-0.444760
H166	H	1.332773	-0.383572	0.055240
O167	O	0.825921	-0.670620	-0.452601
O168	O	1.325921	-0.170620	0.047399
H169	H	0.836687	-0.657962	-0.510375
H170	H	1.336687	-0.157962	-0.010375
H171	H	0.982813	-0.229845	-0.785633
H172	H	1.482813	0.270155	-0.285633
O173	O	0.542072	-0.386844	-0.452467
O174	O	1.042072	0.113156	0.047533
H175	H	0.575972	-0.414895	-0.485105
H176	H	1.075972	0.085105	0.014895
H177	H	0.836720	-1.062764	-0.440268
H178	H	1.336720	-0.562764	0.059732
O179	O	0.277897	-0.386756	-0.452617
O180	O	0.777897	0.113244	0.047383
H181	H	0.265222	-0.436149	-0.439910
H182	H	0.765222	0.063851	0.060090
O183	O	0.141235	-0.386819	-0.452571
O184	O	0.641235	0.113181	0.047429
H185	H	0.175138	-0.414894	-0.485179
H186	H	0.675138	0.085106	0.014821
O187	O	0.141241	-0.219164	-0.257366
O188	O	0.641241	0.280836	0.242634
H189	H	0.090005	-0.225930	-0.265272
H190	H	0.590005	0.274070	0.234728
H191	H	0.269190	-0.229841	-0.269739
H192	H	0.769190	0.270159	0.230261
H193	H	0.836664	-0.375922	-0.924927
H194	H	1.336664	0.124078	-0.424927
O195	O	0.993366	-0.670549	-0.257186
O196	O	1.493366	-0.170549	0.242814
H197	H	1.021358	-0.636637	-0.224483
H198	H	1.521358	-0.136637	0.275517
H199	H	0.836525	-0.542655	-0.440166
H200	H	1.336525	-0.042655	0.059834
