data_functionalizedCrystal
_audit_creation_method	'MofGen! by Chris Wilmer'
_symmetry_space_group_name_H-M	'P1'
_symmetry_Int_Tables_number	1
_symmetry_cell_setting	triclinic
loop_
_symmetry_equiv_pos_as_xyz
  x,y,z
_cell_length_a	9.065218
_cell_length_b	14.586319
_cell_length_c	9.065218
_cell_angle_alpha	89.998049
_cell_angle_beta	94.984115
_cell_angle_gamma	90.003583
loop_
_atom_site_label
_atom_site_type_symbol
_atom_site_fract_x
_atom_site_fract_y
_atom_site_fract_z
O1	O	1.960400	0.076239	-0.216355
O2	O	1.531115	0.076240	-0.234101
O3	O	1.754630	0.076237	-0.010586
O4	O	1.736884	0.076241	-0.439871
O5	O	1.754615	-0.076244	-0.010582
O6	O	1.531099	-0.076241	-0.234098
O7	O	1.960384	-0.076242	-0.216351
Cu8	Cu	1.745740	-0.090164	-0.225224
Cu9	Cu	1.745759	0.090162	-0.225229
O10	O	1.736868	-0.076240	-0.439867
C11	C	1.476120	-0.000001	-0.232394
C12	C	1.312277	-0.000000	-0.227294
N13	N	1.745738	-0.216996	-0.225221
C14	C	1.844744	-0.452004	-0.126282
C15	C	1.844748	-0.547985	-0.126278
C16	C	1.646756	-0.547992	-0.324164
C17	C	1.646745	-0.452013	-0.324159
C18	C	1.745748	-0.404021	-0.225220
C19	C	1.745762	-0.595982	-0.225221
C20	C	1.745766	-0.700049	-0.225218
C21	C	1.745743	-0.299947	-0.225221
C22	C	2.015378	0.000000	-0.218059
C23	C	2.179221	0.000006	-0.223158
C24	C	1.752917	-0.000002	0.044403
C25	C	1.747817	0.000003	0.208245
N26	N	1.745773	0.216994	-0.225221
C27	C	1.738582	0.000001	-0.494855
C28	C	1.743681	0.000003	-0.658698
H29	H	1.925356	-0.412931	-0.045718
C30	C	1.953649	-0.600767	-0.017450
C31	C	2.062557	-0.547976	0.091363
C32	C	2.171461	-0.600758	0.200198
C33	C	2.171458	-0.706332	0.200221
C34	C	2.062547	-0.759129	0.091405
C35	C	1.953642	-0.706347	-0.017431
H36	H	2.062563	-0.469818	0.091350
H37	H	2.252085	-0.561673	0.280751
H38	H	2.252076	-0.745404	0.280787
H39	H	2.062541	-0.837286	0.091418
H40	H	1.873019	-0.745431	-0.097984
H41	H	1.566124	-0.412943	-0.404727
H42	H	1.566152	-0.587077	-0.404720
