data_functionalizedCrystal
_audit_creation_method	'MofGen! by Chris Wilmer'
_symmetry_space_group_name_H-M	'P1'
_symmetry_Int_Tables_number	1
_symmetry_cell_setting	triclinic
loop_
_symmetry_equiv_pos_as_xyz
  x,y,z
_cell_length_a	17.640112
_cell_length_b	12.594516
_cell_length_c	12.594509
_cell_angle_alpha	89.975348
_cell_angle_beta	101.174817
_cell_angle_gamma	101.240082
loop_
_atom_site_label
_atom_site_type_symbol
_atom_site_fract_x
_atom_site_fract_y
_atom_site_fract_z
Zn1	Zn	1.208346	-0.094434	-0.273404
Zn2	Zn	1.208264	-0.272461	-0.095454
Zn3	Zn	1.076172	-0.130494	-0.131362
Zn4	Zn	1.076160	-0.308393	-0.309295
O5	O	1.142236	-0.201446	-0.202379
O6	O	1.318936	-0.087920	-0.219750
O7	O	1.190713	-0.253683	0.048721
O8	O	1.093745	0.023246	-0.150212
O9	O	1.318876	-0.218717	-0.089011
O10	O	1.190852	0.049739	-0.254569
O11	O	1.093666	-0.149381	0.022339
O12	O	0.965570	-0.184222	-0.185013
O13	O	1.093724	-0.279957	-0.453472
O14	O	0.965560	-0.314924	-0.315740
O15	O	1.190840	-0.122762	-0.427103
O16	O	1.190701	-0.426184	-0.123813
O17	O	1.093644	-0.452583	-0.280921
C18	C	0.936887	-0.257386	-0.258168
C19	C	0.849038	-0.281343	-0.282060
C20	C	0.560029	-0.019428	-0.020880
C21	C	0.477481	-0.041961	-0.043345
C22	C	0.477526	-0.178248	-0.179236
C23	C	0.560075	-0.155723	-0.156786
C24	C	0.601320	-0.076313	-0.077606
C25	C	0.601366	-0.212607	-0.213512
C26	C	0.683908	-0.190088	-0.191060
C27	C	0.725159	-0.110683	-0.111881
C28	C	0.683862	-0.053793	-0.055154
C29	C	0.560120	-0.292022	-0.292686
C30	C	0.601411	-0.348907	-0.349411
C31	C	0.683955	-0.326382	-0.326965
C32	C	0.725205	-0.246978	-0.247787
C33	C	0.725252	-0.383273	-0.383692
C34	C	0.807794	-0.360753	-0.361240
C35	C	0.807747	-0.224458	-0.225335
C36	C	1.142184	-0.478001	-0.202382
C37	C	1.142234	-0.596293	-0.202400
C38	C	1.089440	-0.679944	-0.287802
C39	C	1.070182	-0.756055	-0.195914
C40	C	1.161563	-0.730961	-0.294285
C41	C	1.122938	-0.670856	-0.110470
C42	C	1.214353	-0.645746	-0.208898
C43	C	1.195123	-0.721818	-0.116935
C44	C	1.348386	-0.145288	-0.146372
C45	C	1.436235	-0.121357	-0.122505
C46	C	1.142290	-0.201345	-0.479985
C47	C	1.142313	-0.201303	-0.598284
C48	C	1.142309	0.076195	-0.202392
C49	C	1.142340	0.194509	-0.202398
C50	C	1.089524	-0.286703	-0.752634
C51	C	1.070200	-0.194904	-0.687082
C52	C	1.161601	-0.293101	-0.662275
C53	C	1.122997	-0.109317	-0.743515
C54	C	1.214430	-0.207570	-0.718706
C55	C	1.195134	-0.115697	-0.653178
C56	C	1.142227	-0.201457	0.074160
C57	C	1.142357	-0.201158	0.192500
H58	H	0.593613	0.045251	0.043580
H59	H	1.275279	-0.597927	-0.214438
H60	H	1.177869	-0.757544	-0.371992
O61	O	1.030199	-0.654961	-0.383373
H62	H	1.000357	-0.731106	-0.430524
H63	H	1.239815	-0.740475	-0.044643
O64	O	0.556919	-0.434593	-0.434768
H65	H	0.599501	-0.470383	-0.470422
O66	O	1.254301	-0.019895	-0.596160
H67	H	1.254207	-0.021064	-0.508063
O68	O	1.030339	-0.382380	-0.809864
H69	H	1.031273	-0.381915	-0.897731
O70	O	0.989448	-0.187797	-0.667782
H71	H	0.945715	-0.258838	-0.707987
O72	O	1.101251	-0.635844	-0.007531
H73	H	1.090549	-0.706878	0.043628
O74	O	0.680783	-0.468942	-0.469078
H75	H	0.643195	-0.431654	-0.533555
O76	O	1.101324	-0.006388	-0.790383
H77	H	1.101487	-0.007152	-0.878464
O78	O	0.989460	-0.819377	-0.188607
H79	H	0.945695	-0.803006	-0.259582
O80	O	1.295152	-0.214746	-0.738061
H81	H	1.311007	-0.291125	-0.705484
O82	O	0.814187	-0.086391	-0.087652
H83	H	0.835988	-0.059021	-0.162033
H84	H	0.492909	-0.310355	-0.310963
H85	H	0.443933	-0.242907	-0.243701
H86	H	1.177896	-0.370796	-0.626769
O87	O	0.852237	-0.138805	-0.139933
H88	H	0.889859	-0.074445	-0.177433
O89	O	0.728359	0.031857	0.030247
H90	H	0.685781	0.067631	0.065927
H91	H	0.841414	-0.407073	-0.407433
O92	O	0.432942	0.019403	0.017834
H93	H	0.475492	0.078409	0.076656
