data_functionalizedCrystal
_audit_creation_method	'MofGen! by Chris Wilmer'
_symmetry_space_group_name_H-M	'P1'
_symmetry_Int_Tables_number	1
_symmetry_cell_setting	triclinic
loop_
_symmetry_equiv_pos_as_xyz
  x,y,z
_cell_length_a	14.908783
_cell_length_b	12.759400
_cell_length_c	14.908757
_cell_angle_alpha	93.304728
_cell_angle_beta	96.402779
_cell_angle_gamma	93.305614
loop_
_atom_site_label
_atom_site_type_symbol
_atom_site_fract_x
_atom_site_fract_y
_atom_site_fract_z
Zn1	Zn	1.413299	-0.283857	0.591790
Zn2	Zn	1.404513	-0.470266	0.440428
Zn3	Zn	1.253229	-0.305339	0.431694
Zn4	Zn	1.261912	-0.470242	0.583001
O5	O	1.333238	-0.382426	0.511728
O6	O	1.538803	-0.299605	0.579045
O7	O	1.377134	-0.457389	0.312601
O8	O	1.274506	-0.155464	0.452954
O9	O	1.532348	-0.436559	0.467840
O10	O	1.392108	-0.139681	0.570576
O11	O	1.265987	-0.336217	0.306184
O12	O	1.127712	-0.336193	0.444432
O13	O	1.289304	-0.436517	0.710834
O14	O	1.134091	-0.457347	0.555596
O15	O	1.400528	-0.299581	0.717292
O16	O	1.385554	-0.617289	0.459317
O17	O	1.280785	-0.617270	0.564065
C18	C	1.098057	-0.399099	0.498113
C19	C	0.997447	-0.406255	0.492310
C20	C	1.333184	-0.655398	0.511706
C21	C	1.333245	-0.772169	0.511732
C22	C	1.387923	-0.936722	0.457290
C23	C	1.387867	-0.827004	0.457258
C24	C	1.278669	-0.827060	0.566234
C25	C	1.278720	-0.936776	0.566260
C26	C	0.815119	-0.277264	0.597380
C27	C	0.720587	-0.283984	0.591930
C28	C	0.713849	-0.426411	0.475957
C29	C	0.808381	-0.419690	0.481406
C30	C	0.859013	-0.345116	0.542121
C31	C	0.953547	-0.338401	0.547574
C32	C	0.946807	-0.480821	0.431597
C33	C	0.852275	-0.487542	0.426148
C34	C	1.569337	-0.365689	0.525397
C35	C	1.669949	-0.358556	0.531222
C36	C	1.346864	-0.365650	0.747825
C37	C	1.352671	-0.358501	0.848435
C38	C	1.333319	-0.108384	0.511771
C39	C	1.333353	0.008396	0.511789
C40	C	1.247768	-0.487683	1.030771
C41	C	1.253221	-0.480969	1.125303
C42	C	1.369034	-0.338366	1.132034
C43	C	1.363581	-0.345080	1.037502
C44	C	1.302945	-0.419739	0.986874
C45	C	1.297488	-0.426447	0.892339
C46	C	1.413305	-0.283850	0.899072
C47	C	1.418758	-0.277137	0.993605
C48	C	1.319658	-0.399161	1.276549
C49	C	1.313851	-0.406313	1.175938
H50	H	1.432302	-0.782322	0.412878
C51	C	1.278759	-0.576205	0.785268
C52	C	1.230846	-0.508512	0.836678
H53	H	1.237616	-0.626866	0.750903
H54	H	1.320306	-0.610971	0.824425
H55	H	1.310837	-0.536684	0.745601
H56	H	1.198773	-0.548032	0.876351
H57	H	1.189282	-0.473743	0.797517
C58	C	0.565941	-0.499930	0.416104
C59	C	0.658183	-0.508370	0.409218
H60	H	0.531577	-0.550533	0.374904
H61	H	0.549710	-0.431355	0.402068
H62	H	0.553977	-0.512197	0.476010
H63	H	0.670148	-0.496096	0.349314
H64	H	0.674420	-0.576962	0.423247
C65	C	1.137597	-0.496660	1.224564
C66	C	1.192572	-0.555653	1.173562
H67	H	1.100160	-0.542772	1.254361
H68	H	1.100854	-0.455974	1.185689
H69	H	1.174496	-0.451239	1.268243
H70	H	1.155672	-0.601069	1.129878
H71	H	1.229318	-0.596357	1.212440
H72	H	1.198379	-0.548455	0.989547
C73	C	1.495846	-0.925643	0.349561
C74	C	1.447965	-0.996991	0.397407
H75	H	1.532908	-0.962852	0.312586
H76	H	1.532697	-0.877543	0.391018
H77	H	1.454403	-0.888160	0.312618
H78	H	1.489408	-1.034469	0.434356
H79	H	1.411111	-1.045109	0.355945
C80	C	0.967018	-0.540576	0.279921
C81	C	0.995056	-0.555411	0.370851
H82	H	0.996803	-0.586630	0.242424
H83	H	0.981765	-0.469805	0.267674
H84	H	0.903471	-0.555250	0.267996
H85	H	1.058603	-0.540729	0.382777
H86	H	0.980315	-0.626199	0.383103
H87	H	0.856345	-0.216547	0.646820
H88	H	0.684853	-0.228730	0.636925
H89	H	1.418408	-0.277590	1.173273
H90	H	1.468129	-0.216354	1.034839
H91	H	1.234189	-0.782408	0.610584
C92	C	1.157728	-1.068024	0.571719
C93	C	1.218733	-0.997111	0.626172
H94	H	1.120692	-1.105267	0.608704
H95	H	1.190269	-1.116373	0.539288
H96	H	1.120839	-1.030519	0.530246
H97	H	1.255626	-1.034617	0.667641
H98	H	1.186189	-0.948757	0.658619
C99	C	0.820578	-0.670591	0.380128
C100	C	0.796616	-0.569515	0.359416
H101	H	0.786221	-0.721198	0.338927
H102	H	0.808602	-0.682839	0.440025
H103	H	0.883162	-0.676286	0.375464
H104	H	0.734034	-0.563817	0.364086
H105	H	0.808585	-0.557263	0.299504
C106	C	0.950709	-0.198290	0.661655
C107	C	1.009205	-0.256429	0.614309
H108	H	0.985069	-0.147678	0.702850
H109	H	0.915837	-0.244289	0.694088
H110	H	0.911559	-0.163459	0.620137
H111	H	1.048351	-0.291267	0.655827
H112	H	1.044092	-0.210423	0.581875
C113	C	1.456341	-0.230780	0.757150
C114	C	1.473940	-0.209137	0.850817
H115	H	1.493770	-0.184650	0.727361
H116	H	1.394632	-0.220841	0.738157
H117	H	1.468702	-0.301524	0.742408
H118	H	1.461573	-0.138394	0.865560
H119	H	1.535664	-0.219066	0.869817
