data_functionalizedCrystal
_audit_creation_method	'MofGen! by Chris Wilmer'
_symmetry_space_group_name_H-M	'P1'
_symmetry_Int_Tables_number	1
_symmetry_cell_setting	triclinic
loop_
_symmetry_equiv_pos_as_xyz
  x,y,z
_cell_length_a	14.519709
_cell_length_b	19.288859
_cell_length_c	17.766277
_cell_angle_alpha	89.989768
_cell_angle_beta	90.000159
_cell_angle_gamma	96.593065
loop_
_atom_site_label
_atom_site_type_symbol
_atom_site_fract_x
_atom_site_fract_y
_atom_site_fract_z
O1	O	-0.115018	0.921770	-0.062599
O2	O	-0.130543	0.719564	-0.062596
O3	O	0.011492	0.826028	-0.062604
O4	O	-0.257053	0.815306	-0.062590
O5	O	0.011499	0.826009	0.062584
O6	O	-0.130536	0.719546	0.062593
O7	O	-0.115011	0.921751	0.062590
Cu8	Cu	-0.122773	0.820646	0.074022
Cu9	Cu	-0.122781	0.820669	-0.074028
O10	O	-0.257046	0.815287	0.062598
C11	C	-0.130041	0.693677	-0.000001
C12	C	-0.128544	0.616567	-0.000001
C13	C	-0.201759	0.052790	0.000002
C14	C	-0.203173	0.125242	-0.000002
C15	C	-0.119834	0.169649	-0.000005
C16	C	-0.035073	0.141599	-0.000023
C17	C	-0.033661	0.069148	-0.000027
C18	C	-0.057677	0.290689	0.043854
C19	C	-0.059092	0.363137	0.043862
C20	C	-0.124185	0.393110	0.000003
C21	C	-0.187878	0.350624	-0.043854
C22	C	-0.186466	0.278173	-0.043858
C23	C	-0.121355	0.248210	-0.000001
C24	C	-0.210474	0.499712	0.000012
C25	C	-0.211885	0.572165	0.000003
C26	C	-0.043782	0.588521	-0.000010
C27	C	-0.042374	0.516069	-0.000009
C28	C	-0.125722	0.471669	0.000005
C29	C	-0.291406	0.815796	0.000006
C30	C	-0.393778	0.817294	0.000011
C31	C	-0.768639	0.822806	-0.000019
C32	C	-0.664340	0.821275	-0.000011
C33	C	-0.581212	0.820050	-0.000004
C34	C	-0.476907	0.818519	0.000004
C35	C	0.045852	0.825519	-0.000013
C36	C	0.148224	0.824022	-0.000023
C37	C	-0.115513	0.947639	-0.000007
C38	C	-0.117010	1.024748	-0.000012
N39	N	-0.122766	0.820636	0.178152
N40	N	-0.122780	0.820685	-0.178158
C41	C	-0.059904	0.867794	0.217535
C42	C	-0.059899	0.867798	0.296337
C43	C	-0.122773	0.820651	0.335753
C44	C	-0.185641	0.773484	0.296360
C45	C	-0.185637	0.773477	0.217560
C46	C	-0.206802	0.811654	0.460595
C47	C	-0.206807	0.811666	0.539394
C48	C	-0.122785	0.820669	0.578799
C49	C	-0.038754	0.829675	0.539396
C50	C	-0.038750	0.829667	0.460595
C51	C	-0.122784	0.820653	0.421198
C52	C	-0.059912	0.867834	0.703628
C53	C	-0.059907	0.867833	0.782431
C54	C	-0.185656	0.773523	0.782453
C55	C	-0.185654	0.773520	0.703651
C56	C	-0.122783	0.820679	0.664244
H57	H	-0.272189	0.148078	0.000017
H58	H	0.029670	0.836998	0.428516
H59	H	-0.278341	0.463559	0.000023
H60	H	0.029665	0.837005	0.571478
H61	H	0.026639	0.493237	-0.000016
H62	H	-0.008716	0.906232	0.671541
H63	H	0.032783	0.177759	-0.000028
O64	O	0.001195	0.913712	0.820574
C65	C	0.056696	0.955321	0.768890
H66	H	0.018888	0.956143	0.712717
H67	H	0.125135	0.932694	0.760517
C68	C	0.122381	1.029218	0.868616
C69	C	0.075941	1.030232	0.799625
H70	H	0.134257	1.075426	0.887575
H71	H	0.084992	1.001184	0.903437
H72	H	0.179409	1.010359	0.861629
H73	H	0.018911	1.049082	0.806614
H74	H	0.113322	1.058271	0.764806
O75	O	-0.248362	0.237007	-0.086536
C76	C	-0.306135	0.278988	-0.125236
H77	H	-0.269512	0.334300	-0.130528
H78	H	-0.373632	0.280127	-0.092715
C79	C	-0.372522	0.180656	-0.197789
C80	C	-0.327537	0.248590	-0.204295
H81	H	-0.385727	0.161904	-0.246555
H82	H	-0.333601	0.152372	-0.171714
H83	H	-0.428763	0.181615	-0.170685
H84	H	-0.271291	0.247630	-0.231389
H85	H	-0.366449	0.276873	-0.230376
H86	H	-0.236846	0.735132	0.814544
O87	O	-0.246816	0.727691	0.665507
C88	C	-0.302295	0.686065	0.717190
H89	H	-0.303242	0.714546	0.773354
H90	H	-0.272526	0.634434	0.725587
C91	C	-0.400668	0.636886	0.617456
C92	C	-0.401838	0.671870	0.686435
H93	H	-0.462070	0.628126	0.598484
H94	H	-0.363289	0.664927	0.582635
H95	H	-0.375857	0.593864	0.624462
H96	H	-0.426638	0.714894	0.679425
H97	H	-0.439224	0.643835	0.721254
O98	O	-0.288511	0.802881	0.577550
C99	C	-0.362671	0.794941	0.525875
H100	H	-0.337224	0.775822	0.469712
H101	H	-0.390561	0.847289	0.517475
C102	C	-0.471632	0.764859	0.625626
C103	C	-0.440379	0.741372	0.556647
H104	H	-0.519569	0.731818	0.644607
H105	H	-0.421670	0.770211	0.660441
H106	H	-0.494867	0.808483	0.618616
H107	H	-0.417134	0.697753	0.563659
H108	H	-0.490339	0.736011	0.521833
H109	H	-0.280901	0.594995	0.000009
O110	O	0.037091	0.631748	0.000017
C111	C	0.017674	0.701709	-0.000001
H112	H	-0.054748	0.704573	0.023709
H113	H	0.021246	0.722665	-0.060061
C114	C	0.178415	0.742438	0.019963
C115	C	0.089469	0.745956	0.049090
H116	H	0.222703	0.769732	0.050241
H117	H	0.191498	0.695304	0.019972
H118	H	0.181379	0.759899	-0.030087
H119	H	0.086502	0.728486	0.099135
H120	H	0.076387	0.793088	0.049090
O121	O	0.002865	0.404306	0.086483
C122	C	0.060614	0.362318	0.125200
H123	H	0.061505	0.310669	0.094179
H124	H	0.033028	0.351897	0.184699
C125	C	0.158665	0.463732	0.167123
C126	C	0.159765	0.400298	0.129019
H127	H	0.219825	0.487161	0.169482
H128	H	0.119757	0.492021	0.141041
H129	H	0.135672	0.455040	0.216702
H130	H	0.182746	0.408992	0.079438
H131	H	0.198679	0.372012	0.155092
H132	H	-0.236832	0.735095	0.328456
O133	O	-0.282747	0.009692	-0.000125
C134	C	-0.334239	0.022451	-0.064946
H135	H	-0.285453	0.047161	-0.110265
H136	H	-0.387459	0.059406	-0.050279
C137	C	-0.444418	-0.077259	-0.038684
C138	C	-0.384497	-0.046916	-0.094348
H139	H	-0.475423	-0.120047	-0.056820
H140	H	-0.409730	-0.085854	0.004989
H141	H	-0.488760	-0.046456	-0.026466
H142	H	-0.340150	-0.077715	-0.106558
H143	H	-0.419179	-0.038328	-0.138024
O144	O	-0.288369	0.803009	0.422235
C145	C	-0.295607	0.861981	0.376650
H146	H	-0.223387	0.889631	0.364846
H147	H	-0.338621	0.899210	0.407004
C148	C	-0.431666	0.804796	0.316298
C149	C	-0.342964	0.838753	0.301794
H150	H	-0.460882	0.790469	0.270124
H151	H	-0.426793	0.765067	0.347011
H152	H	-0.467500	0.835825	0.341595
H153	H	-0.307128	0.807721	0.276506
H154	H	-0.347832	0.878477	0.271075
O155	O	0.001294	0.913577	0.334525
C156	C	0.092554	0.902167	0.315297
H157	H	0.092359	0.875397	0.258088
H158	H	0.120949	0.867560	0.359656
C159	C	0.154384	1.005496	0.381916
C160	C	0.154147	0.972621	0.311647
H161	H	0.192380	1.048954	0.379668
H162	H	0.092901	1.013182	0.394874
H163	H	0.178045	0.976649	0.418875
H164	H	0.130476	1.001464	0.274692
H165	H	0.215627	0.964942	0.298684
H166	H	-0.004665	0.266292	0.079571
H167	H	-0.236828	0.735075	0.185493
H168	H	-0.240885	0.375025	-0.079567
O169	O	0.048749	0.042020	-0.000003
C170	C	0.122008	0.096747	-0.000030
H171	H	0.096367	0.145992	0.023673
H172	H	0.147693	0.106975	-0.060092
C173	C	0.233464	0.015706	0.019945
C174	C	0.201974	0.076188	0.049063
H175	H	0.282793	0.003024	0.050225
H176	H	0.184110	-0.021166	0.019960
H177	H	0.254862	0.024237	-0.030106
H178	H	0.180566	0.067653	0.099109
H179	H	0.251327	0.113057	0.049057
H180	H	-0.008708	0.906192	0.185452
