data_functionalizedCrystal
_audit_creation_method	'MofGen! by Chris Wilmer'
_symmetry_space_group_name_H-M	'P1'
_symmetry_Int_Tables_number	1
_symmetry_cell_setting	triclinic
loop_
_symmetry_equiv_pos_as_xyz
  x,y,z
_cell_length_a	25.639239
_cell_length_b	12.759401
_cell_length_c	12.759393
_cell_angle_alpha	89.979434
_cell_angle_beta	90.035978
_cell_angle_gamma	89.963105
loop_
_atom_site_label
_atom_site_type_symbol
_atom_site_fract_x
_atom_site_fract_y
_atom_site_fract_z
Zn1	Zn	-0.208150	-1.606091	0.593970
Zn2	Zn	0.291850	-1.106091	1.093970
Zn3	Zn	-0.295596	-1.605909	0.418273
Zn4	Zn	0.204404	-1.105909	0.918273
Zn5	Zn	-0.208173	-1.430390	0.418306
Zn6	Zn	0.291827	-0.930390	0.918306
Zn7	Zn	-0.295554	-1.430308	0.593911
Zn8	Zn	0.204446	-0.930308	1.093911
O9	O	-0.251868	-1.518175	0.506115
O10	O	0.248132	-1.018175	1.006115
O11	O	-0.219758	-1.753088	0.570674
O12	O	0.280242	-1.253088	1.070674
O13	O	-0.284026	-1.582584	0.271256
O14	O	0.215974	-1.082584	0.771256
O15	O	-0.135005	-1.453808	0.441646
O16	O	0.364995	-0.953808	0.941646
O17	O	-0.284004	-1.752954	0.441590
O18	O	0.215996	-1.252954	0.941590
O19	O	-0.134988	-1.582895	0.570706
O20	O	0.365012	-1.082895	1.070706
O21	O	-0.219797	-1.453631	0.271280
O22	O	0.280203	-0.953631	0.771280
O23	O	-0.219757	-1.283358	0.441590
O24	O	0.280243	-0.783358	0.941590
O25	O	-0.283933	-1.453668	0.740940
O26	O	0.216067	-0.953668	1.240940
O27	O	-0.283955	-1.283298	0.570606
O28	O	0.216045	-0.783298	1.070606
O29	O	-0.219718	-1.582815	0.740983
O30	O	0.280282	-1.082815	1.240983
O31	O	-0.368755	-1.582504	0.441533
O32	O	0.131245	-1.082504	0.941533
O33	O	-0.368725	-1.453492	0.570574
O34	O	0.131275	-0.953492	1.070574
C35	C	-0.251854	-1.245207	0.506096
C36	C	0.248146	-0.745207	1.006096
C37	C	-0.251861	-1.128431	0.506113
C38	C	0.248139	-0.628431	1.006113
C39	C	-0.218467	-1.073639	0.573429
C40	C	0.281533	-0.573639	1.073429
C41	C	-0.218471	-0.963915	0.573434
C42	C	0.281529	-0.463915	1.073434
C43	C	-0.285265	-0.963784	0.438804
C44	C	0.214735	-0.463784	0.938804
C45	C	-0.285259	-1.073506	0.438794
C46	C	0.214741	-0.573506	0.938794
C47	C	-0.387711	-1.517998	0.506067
C48	C	0.112289	-1.017998	1.006067
C49	C	-0.445825	-1.518018	0.506081
C50	C	0.054175	-1.018018	1.006081
C51	C	-0.806191	-1.585527	0.439038
C52	C	-0.306191	-1.085527	0.939038
C53	C	-0.860796	-1.585568	0.439052
C54	C	-0.360796	-1.085568	0.939052
O55	O	-0.889035	-1.642782	0.381996
O56	O	-0.389035	-1.142782	0.881996
N57	N	-0.888107	-1.518359	0.506184
N58	N	-0.388107	-1.018359	1.006184
C59	C	-0.860812	-1.451113	0.573315
C60	C	-0.360812	-0.951113	1.073315
O61	O	-0.889057	-1.393952	0.630418
O62	O	-0.389057	-0.893952	1.130418
C63	C	-0.806209	-1.451079	0.573305
C64	C	-0.306209	-0.951079	1.073305
C65	C	-0.778900	-1.518284	0.506161
C66	C	-0.278900	-1.018284	1.006161
C67	C	-0.778882	-1.652727	0.371900
C68	C	-0.278882	-1.152727	0.871900
C69	C	-0.724282	-1.652685	0.371884
C70	C	-0.224282	-1.152685	0.871884
C71	C	-0.696990	-1.585442	0.439008
C72	C	-0.196990	-1.085442	0.939008
C73	C	-0.724299	-1.518242	0.506146
C74	C	-0.224299	-1.018242	1.006146
C75	C	-0.778914	-1.383839	0.640440
C76	C	-0.278914	-0.883839	1.140440
C77	C	-0.724307	-1.383810	0.640426
C78	C	-0.224307	-0.883810	1.140426
C79	C	-0.696998	-1.451016	0.573281
C80	C	-0.196998	-0.951016	1.073281
C81	C	-0.642407	-1.450956	0.573254
C82	C	-0.142407	-0.950956	1.073254
N83	N	-0.615095	-1.518165	0.506121
N84	N	-0.115095	-1.018165	1.006121
C85	C	-0.642387	-1.585408	0.438998
C86	C	-0.142387	-1.085408	0.938998
C87	C	-0.975483	-1.451192	0.573331
C88	C	-0.475483	-0.951192	1.073331
C89	C	-1.030085	-1.451221	0.573336
C90	C	-0.530085	-0.951221	1.073336
C91	C	-1.030065	-1.585677	0.439074
C92	C	-0.530065	-1.085677	0.939074
C93	C	-0.975461	-1.585642	0.439065
C94	C	-0.475461	-1.085642	0.939065
C95	C	-0.948171	-1.518401	0.506199
C96	C	-0.448171	-1.018401	1.006199
C97	C	-0.527722	-1.585313	0.438971
C98	C	-0.027722	-1.085313	0.938971
C99	C	-0.473117	-1.585261	0.438958
C100	C	0.026883	-1.085261	0.938958
C101	C	-0.473141	-1.450810	0.573224
C102	C	0.026859	-0.950810	1.073224
C103	C	-0.527742	-1.450857	0.573232
C104	C	-0.027742	-0.950857	1.073232
C105	C	-0.555031	-1.518117	0.506102
C106	C	-0.055031	-1.018117	1.006102
O107	O	-0.614133	-1.393773	0.630283
O108	O	-0.114133	-0.893773	1.130283
O109	O	-0.614136	-1.642569	0.381914
O110	O	-0.114136	-1.142569	0.881914
C111	C	-0.115495	-1.518381	0.506186
C112	C	0.384505	-1.018381	1.006186
C113	C	-0.057381	-1.518468	0.506217
C114	C	0.442619	-1.018468	1.006217
C115	C	-0.251818	-1.518253	0.780148
C116	C	0.248182	-1.018253	1.280148
C117	C	-0.251797	-1.518287	0.896925
C118	C	0.248203	-1.018287	1.396925
C119	C	-0.251878	-0.792208	0.506131
C120	C	0.248122	-0.292208	1.006131
C121	C	-0.251870	-0.908984	0.506128
C122	C	0.248130	-0.408984	1.006128
C123	C	-0.251881	-1.518157	0.233147
C124	C	0.248119	-1.018157	0.733147
C125	C	-0.251755	-1.518327	0.116371
C126	C	0.248245	-1.018327	0.616371
C127	C	-0.218355	-1.585539	0.951811
C128	C	0.281645	-1.085539	1.451811
C129	C	-0.218332	-1.585556	1.061535
C130	C	0.281668	-1.085556	1.561535
C131	C	-0.285198	-1.451068	1.061478
C132	C	0.214802	-0.951068	1.561478
C133	C	-0.285218	-1.451045	0.951756
C134	C	0.214782	-0.951045	1.451756
H135	H	-0.312452	-1.118118	0.383971
H136	H	0.187548	-0.618118	0.883971
C137	C	-0.321958	-1.377104	1.121802
C138	C	0.178042	-0.877104	1.621802
N139	N	-0.349647	-1.321393	1.167236
N140	N	0.150353	-0.821393	1.667236
C141	C	-0.322007	-1.377056	0.891377
C142	C	0.177993	-0.877056	1.391377
N143	N	-0.349714	-1.321327	0.845901
N144	N	0.150286	-0.821327	1.345901
C145	C	-0.808894	-1.726701	0.298047
C146	C	-0.308894	-1.226701	0.798047
N147	N	-0.831496	-1.782416	0.242408
N148	N	-0.331496	-1.282416	0.742408
C149	C	-0.181586	-1.659497	0.891501
C150	C	0.318414	-1.159497	1.391501
N151	N	-0.153889	-1.715201	0.846079
N152	N	0.346111	-1.215201	1.346079
H153	H	-0.191271	-1.118356	0.628241
H154	H	0.308729	-0.618356	1.128241
C155	C	-0.181737	-0.903649	0.647491
C156	C	0.318263	-0.403649	1.147491
N157	N	-0.154067	-0.858258	0.703274
N158	N	0.345933	-0.358258	1.203274
H159	H	-0.312457	-0.919051	0.383996
H160	H	0.187543	-0.419051	0.883996
H161	H	-0.450883	-1.639988	0.384277
H162	H	0.049117	-1.139988	0.884277
C163	C	-0.557732	-1.659296	0.365118
C164	C	-0.057732	-1.159296	0.865118
N165	N	-0.580335	-1.715014	0.309486
N166	N	-0.080335	-1.215014	0.809486
C167	C	-0.694249	-1.726608	0.298011
C168	C	-0.194249	-1.226608	0.798011
N169	N	-0.671632	-1.782289	0.242363
N170	N	-0.171632	-1.282289	0.742363
H171	H	-0.953230	-1.640367	0.384391
H172	H	-0.453230	-1.140367	0.884391
H173	H	-0.191099	-1.640318	1.106219
H174	H	0.308901	-1.140318	1.606219
C175	C	-1.060096	-1.659654	0.365245
C176	C	-0.560096	-1.159654	0.865245
N177	N	-1.082717	-1.715372	0.309642
N178	N	-0.582717	-1.215372	0.809642
H179	H	-1.052315	-1.396486	0.628002
H180	H	-0.552315	-0.896486	1.128002
H181	H	-0.953265	-1.396428	0.627997
H182	H	-0.453265	-0.896428	1.127997
H183	H	-0.801140	-1.329108	0.695112
H184	H	-0.301140	-0.829108	1.195112
H185	H	-0.549978	-1.396136	0.627910
H186	H	-0.049978	-0.896136	1.127910
C187	C	-0.694291	-1.309838	0.714281
C188	C	-0.194291	-0.809838	1.214281
N189	N	-0.671684	-1.254120	0.769906
N190	N	-0.171684	-0.754120	1.269906
H191	H	-0.450912	-1.396058	0.627871
H192	H	0.049088	-0.896058	1.127871
