data_functionalizedCrystal
_audit_creation_method	'MofGen! by Chris Wilmer'
_symmetry_space_group_name_H-M	'P1'
_symmetry_Int_Tables_number	1
_symmetry_cell_setting	triclinic
loop_
_symmetry_equiv_pos_as_xyz
  x,y,z
_cell_length_a	23.532361
_cell_length_b	23.532407
_cell_length_c	22.010155
_cell_angle_alpha	90.010545
_cell_angle_beta	89.988583
_cell_angle_gamma	97.160831
loop_
_atom_site_label
_atom_site_type_symbol
_atom_site_fract_x
_atom_site_fract_y
_atom_site_fract_z
O1	O	0.755286	-0.069007	-0.050472
O2	O	1.088619	0.264326	0.282861
O3	O	1.421953	0.597659	0.616195
O4	O	0.589419	-0.079038	-0.050488
O5	O	0.922752	0.254295	0.282846
O6	O	1.256086	0.587629	0.616179
O7	O	0.677354	0.008910	-0.050466
O8	O	1.010688	0.342243	0.282867
O9	O	1.344021	0.675577	0.616200
O10	O	0.667351	-0.156955	-0.050494
O11	O	1.000684	0.176378	0.282840
O12	O	1.334017	0.509711	0.616173
O13	O	0.677328	0.008910	0.050584
O14	O	1.010661	0.342243	0.383917
O15	O	1.343995	0.675577	0.717251
O16	O	0.589393	-0.079038	0.050563
O17	O	0.922726	0.254295	0.383896
O18	O	1.256059	0.587629	0.717229
O19	O	0.755260	-0.069007	0.050578
O20	O	1.088593	0.264326	0.383912
O21	O	1.421926	0.597659	0.717245
Cu22	Cu	0.672324	-0.074023	0.059797
Cu23	Cu	1.005657	0.259311	0.393130
Cu24	Cu	1.338990	0.592644	0.726464
Cu25	Cu	0.672355	-0.074023	-0.059707
Cu26	Cu	1.005688	0.259311	0.273627
Cu27	Cu	1.339022	0.592644	0.606960
O28	O	0.667324	-0.156955	0.050557
O29	O	1.000658	0.176378	0.383890
O30	O	1.333991	0.509711	0.717223
C31	C	0.568189	-0.078787	0.000036
C32	C	0.901523	0.254546	0.333369
C33	C	1.234856	0.587880	0.666702
C34	C	0.504971	-0.078032	0.000030
C35	C	0.838304	0.255302	0.333364
C36	C	1.171637	0.588635	0.666697
C37	C	0.231741	-0.074728	-0.055048
C38	C	0.565075	0.258605	0.278285
C39	C	0.898408	0.591938	0.611619
C40	C	0.291141	-0.075443	-0.055050
C41	C	0.624475	0.257890	0.278284
C42	C	0.957808	0.591224	0.611617
O43	O	0.321879	-0.075793	-0.101894
O44	O	0.655213	0.257540	0.231439
O45	O	0.988546	0.590873	0.564772
N46	N	0.320832	-0.075804	0.000033
N47	N	0.654166	0.257529	0.333366
N48	N	0.987499	0.590862	0.666700
C49	C	0.291122	-0.075445	0.055121
C50	C	0.624455	0.257889	0.388454
C51	C	0.957788	0.591222	0.721788
O52	O	0.321831	-0.075817	0.101973
O53	O	0.655164	0.257516	0.435306
O54	O	0.988498	0.590850	0.768640
C55	C	0.231724	-0.074726	0.055122
C56	C	0.565057	0.258608	0.388455
C57	C	0.898390	0.591941	0.721789
C58	C	0.202035	-0.074370	0.000036
C59	C	0.535368	0.258963	0.333369
C60	C	0.868701	0.592296	0.666702
C61	C	0.202052	-0.074372	-0.110130
C62	C	0.535386	0.258961	0.223203
C63	C	0.868719	0.592294	0.556537
C64	C	0.142657	-0.073658	-0.110128
C65	C	0.475990	0.259675	0.223205
C66	C	0.809323	0.593008	0.556539
C67	C	0.112950	-0.073301	-0.055044
C68	C	0.446283	0.260033	0.278289
C69	C	0.779616	0.593366	0.611622
C70	C	0.142639	-0.073657	0.000037
C71	C	0.475972	0.259677	0.333371
C72	C	0.809305	0.593010	0.666704
C73	C	0.202015	-0.074362	0.110209
C74	C	0.535348	0.258971	0.443542
C75	C	0.868681	0.592305	0.776876
C76	C	0.142612	-0.073642	0.110205
C77	C	0.475946	0.259691	0.443539
C78	C	0.809279	0.593024	0.776872
C79	C	0.112923	-0.073287	0.055119
C80	C	0.446257	0.260046	0.388452
C81	C	0.779590	0.593380	0.721786
C82	C	0.053536	-0.072585	0.055123
C83	C	0.386870	0.260748	0.388456
C84	C	0.720203	0.594082	0.721790
N85	N	0.023845	-0.072224	0.000040
N86	N	0.357178	0.261110	0.333374
N87	N	0.690512	0.594443	0.666707
C88	C	0.053552	-0.072582	-0.055043
C89	C	0.386885	0.260752	0.278290
C90	C	0.720218	0.594085	0.611623
C91	C	0.415862	-0.076954	0.055115
C92	C	0.749195	0.256380	0.388448
C93	C	1.082529	0.589713	0.721781
C94	C	0.475258	-0.077677	0.055114
C95	C	0.808592	0.255657	0.388448
C96	C	1.141925	0.588990	0.721781
C97	C	0.475274	-0.077674	-0.055057
C98	C	0.808607	0.255659	0.278277
C99	C	1.141941	0.588993	0.611610
C100	C	0.415876	-0.076955	-0.055056
C101	C	0.749209	0.256378	0.278278
C102	C	1.082542	0.589712	0.611611
C103	C	0.386171	-0.076593	0.000032
C104	C	0.719504	0.256741	0.333365
C105	C	1.052837	0.590074	0.666699
C106	C	-0.071184	-0.071083	-0.055035
C107	C	0.262149	0.262250	0.278298
C108	C	0.595483	0.595584	0.611631
C109	C	-0.130585	-0.070372	-0.055029
C110	C	0.202748	0.262962	0.278305
C111	C	0.536081	0.596295	0.611638
C112	C	-0.130595	-0.070371	0.055142
C113	C	0.202738	0.262962	0.388475
C114	C	0.536072	0.596295	0.721808
C115	C	-0.071199	-0.071086	0.055135
C116	C	0.262134	0.262248	0.388469
C117	C	0.595467	0.595581	0.721802
C118	C	-0.041495	-0.071440	0.000042
C119	C	0.291838	0.261894	0.333375
C120	C	0.625172	0.595227	0.666709
O121	O	0.022761	-0.072232	0.101944
O122	O	0.356094	0.261101	0.435277
O123	O	0.689427	0.594435	0.768610
O124	O	0.022836	-0.072202	-0.101888
O125	O	0.356170	0.261132	0.231446
O126	O	0.689503	0.594465	0.564779
C127	C	0.677086	0.030126	0.000061
C128	C	1.010420	0.363459	0.333394
C129	C	1.343753	0.696793	0.666728
C130	C	0.676320	0.093343	0.000067
C131	C	1.009654	0.426676	0.333401
C132	C	1.342987	0.760009	0.666734
C133	C	0.723555	0.492454	0.000048
C134	C	1.056888	0.825787	0.333382
C135	C	1.390222	1.159120	0.666715
C136	C	0.722844	0.551854	0.000045
C137	C	1.056177	0.885187	0.333378
C138	C	1.389510	1.218521	0.666712
O139	O	0.766630	0.588606	0.000028
O140	O	1.099964	0.921939	0.333361
O141	O	1.433297	1.255272	0.666694
N142	N	0.670566	0.574471	0.000041
N143	N	1.003899	0.907805	0.333375
N144	N	1.337233	1.241138	0.666708
C145	C	0.618997	0.537685	0.000034
C146	C	0.952330	0.871018	0.333368
C147	C	1.285663	1.204352	0.666701
O148	O	0.574465	0.562377	0.000030
O149	O	0.907799	0.895711	0.333364
O150	O	1.241132	1.229044	0.666697
C151	C	0.619709	0.478286	0.000033
C152	C	0.953042	0.811619	0.333367
C153	C	1.286375	1.144953	0.666700
C154	C	0.671990	0.455672	0.000043
C155	C	1.005323	0.789006	0.333377
C156	C	1.338656	1.122339	0.666710
C157	C	0.775832	0.469839	0.000058
C158	C	1.109165	0.803173	0.333391
C159	C	1.442498	1.136506	0.666724
C160	C	0.776543	0.410443	0.000062
C161	C	1.109876	0.743777	0.333395
C162	C	1.443210	1.077110	0.666729
C163	C	0.724977	0.373662	0.000057
C164	C	1.058311	0.706995	0.333390
C165	C	1.391644	1.040328	0.666724
C166	C	0.672701	0.396276	0.000048
C167	C	1.006034	0.729610	0.333381
C168	C	1.339368	1.062943	0.666714
C169	C	0.568140	0.441501	0.000022
C170	C	0.901473	0.774834	0.333355
C171	C	1.234807	1.108168	0.666689
C172	C	0.568857	0.382099	0.000020
C173	C	0.902190	0.715432	0.333354
C174	C	1.235523	1.048765	0.666687
C175	C	0.621137	0.359485	0.000030
C176	C	0.954471	0.692818	0.333364
C177	C	1.287804	1.026151	0.666697
C178	C	0.621847	0.300099	0.000047
C179	C	0.955180	0.633432	0.333380
C180	C	1.288513	0.966765	0.666714
N181	N	0.674124	0.277481	0.000051
N182	N	1.007457	0.610815	0.333384
N183	N	1.340791	0.944148	0.666717
C184	C	0.725690	0.314263	0.000056
C185	C	1.059023	0.647596	0.333389
C186	C	1.392356	0.980929	0.666722
C187	C	0.617505	0.662427	0.000036
C188	C	0.950839	0.995761	0.333369
C189	C	1.284172	1.329094	0.666702
C190	C	0.616793	0.721825	0.000041
C191	C	0.950126	1.055158	0.333375
C192	C	1.283459	1.388492	0.666708
C193	C	0.720640	0.735990	0.000051
C194	C	1.053973	1.069323	0.333384
C195	C	1.387306	1.402657	0.666717
C196	C	0.721352	0.676591	0.000050
C197	C	1.054685	1.009924	0.333383
C198	C	1.388018	1.343258	0.666716
C199	C	0.669783	0.639810	0.000040
C200	C	1.003116	0.973143	0.333373
C201	C	1.336449	1.306477	0.666706
C202	C	0.727179	0.189526	0.000065
C203	C	1.060513	0.522860	0.333399
C204	C	1.393846	0.856193	0.666732
C205	C	0.727886	0.130124	0.000072
C206	C	1.061219	0.463458	0.333406
C207	C	1.394553	0.796791	0.666739
C208	C	0.624039	0.115965	0.000059
C209	C	0.957372	0.449298	0.333393
C210	C	1.290706	0.782631	0.666726
C211	C	0.623332	0.175361	0.000056
C212	C	0.956665	0.508695	0.333389
C213	C	1.289999	0.842028	0.666722
C214	C	0.674907	0.212141	0.000057
C215	C	1.008240	0.545475	0.333390
C216	C	1.341574	0.878808	0.666723
O217	O	0.578083	0.263312	0.000062
O218	O	0.911416	0.596645	0.333395
O219	O	1.244749	0.929979	0.666728
O220	O	0.770214	0.289562	0.000052
O221	O	1.103547	0.622896	0.333385
O222	O	1.436880	0.956229	0.666719
C223	C	0.776489	-0.069258	0.000054
C224	C	1.109823	0.264075	0.333387
C225	C	1.443156	0.597408	0.666720
C226	C	0.839708	-0.070014	0.000055
C227	C	1.173041	0.263320	0.333388
C228	C	1.506375	0.596653	0.666722
C229	C	0.667592	0.821829	0.000034
C230	C	1.000926	1.155162	0.333368
C231	C	1.334259	1.488495	0.666701
C232	C	0.668358	0.758612	0.000043
C233	C	1.001692	1.091945	0.333376
C234	C	1.335025	1.425279	0.666710
N235	N	0.672306	-0.074022	0.143850
N236	N	1.005639	0.259311	0.477183
N237	N	1.338973	0.592644	0.810516
N238	N	0.672377	-0.074018	-0.143759
N239	N	1.005711	0.259315	0.189574
N240	N	1.339044	0.592648	0.522908
C241	C	0.706701	-0.108377	0.563627
C242	C	1.040035	0.224956	0.896960
C243	C	1.373368	0.558289	1.230293
C244	C	0.706708	-0.108376	0.627234
C245	C	1.040041	0.224957	0.960567
C246	C	1.373375	0.558291	1.293901
O247	O	0.735932	-0.137582	0.660123
O248	O	1.069265	0.195751	0.993457
O249	O	1.402598	0.529085	1.326790
N250	N	0.672366	-0.074016	0.659057
N251	N	1.005699	0.259317	0.992390
N252	N	1.339033	0.592651	1.325723
C253	C	0.638020	-0.039651	0.627268
C254	C	0.971353	0.293682	0.960602
C255	C	1.304686	0.627016	1.293935
O256	O	0.608810	-0.010425	0.660177
O257	O	0.942144	0.322909	0.993510
O258	O	1.275477	0.656242	1.326843
C259	C	0.638016	-0.039650	0.563662
C260	C	0.971350	0.293683	0.896995
C261	C	1.304683	0.627017	1.230329
C262	C	0.672356	-0.074016	0.531843
C263	C	1.005689	0.259317	0.865176
C264	C	1.339023	0.592650	1.198509
C265	C	0.741039	-0.142741	0.531807
C266	C	1.074372	0.190593	0.865140
C267	C	1.407705	0.523926	1.198474
C268	C	0.741031	-0.142743	0.468204
C269	C	1.074364	0.190591	0.801537
C270	C	1.407698	0.523924	1.134871
C271	C	0.706686	-0.108382	0.436420
C272	C	1.040019	0.224952	0.769753
C273	C	1.373353	0.558285	1.103087
C274	C	0.672348	-0.074018	0.468239
C275	C	1.005682	0.259315	0.801573
C276	C	1.339015	0.592648	1.134906
C277	C	0.603673	-0.005282	0.531875
C278	C	0.937007	0.328051	0.865208
C279	C	1.270340	0.661385	1.198542
C280	C	0.603673	-0.005284	0.468264
C281	C	0.937007	0.328050	0.801597
C282	C	1.270340	0.661383	1.134931
C283	C	0.638013	-0.039650	0.436445
C284	C	0.971347	0.293683	0.769778
C285	C	1.304680	0.627017	1.103111
C286	C	0.637996	-0.039659	0.372852
C287	C	0.971329	0.293674	0.706186
C288	C	1.304662	0.627007	1.039519
N289	N	0.672338	-0.074019	0.341030
N290	N	1.005671	0.259314	0.674363
N291	N	1.339004	0.592647	1.007696
C292	C	0.706683	-0.108380	0.372814
C293	C	1.040016	0.224953	0.706147
C294	C	1.373349	0.558286	1.039480
C295	C	0.638030	-0.039656	0.760846
C296	C	0.971363	0.293678	1.094180
C297	C	1.304697	0.627011	1.427513
C298	C	0.638030	-0.039659	0.824452
C299	C	0.971363	0.293674	1.157785
C300	C	1.304696	0.627007	1.491118
C301	C	0.706719	-0.108384	0.824413
C302	C	1.040052	0.224950	1.157746
C303	C	1.373386	0.558283	1.491079
C304	C	0.706716	-0.108382	0.760806
C305	C	1.040049	0.224951	1.094140
C306	C	1.373382	0.558284	1.427473
C307	C	0.672372	-0.074015	0.729024
C308	C	1.005705	0.259318	1.062357
C309	C	1.339038	0.592651	1.395690
C310	C	0.706664	-0.108383	0.239242
C311	C	1.039997	0.224951	0.572576
C312	C	1.373330	0.558284	0.905909
C313	C	0.706651	-0.108383	0.175633
C314	C	1.039984	0.224950	0.508967
C315	C	1.373318	0.558283	0.842300
C316	C	0.637964	-0.039657	0.175678
C317	C	0.971298	0.293676	0.509011
C318	C	1.304631	0.627010	0.842344
C319	C	0.637974	-0.039658	0.239281
C320	C	0.971308	0.293675	0.572614
C321	C	1.304641	0.627008	0.905948
C322	C	0.672329	-0.074023	0.271062
C323	C	1.005662	0.259311	0.604395
C324	C	1.338995	0.592644	0.937728
O325	O	0.608789	-0.010466	0.339923
O326	O	0.942122	0.322867	0.673256
O327	O	1.275455	0.656200	1.006589
O328	O	0.735893	-0.137596	0.339898
O329	O	1.069226	0.195737	0.673231
O330	O	1.402560	0.529071	1.006564
H331	H	-0.047027	-0.071386	0.099991
H332	H	0.286306	0.261947	0.433324
H333	H	0.619640	0.595280	0.766658
H334	H	0.734638	-0.136365	0.265111
H335	H	1.067972	0.196968	0.598444
H336	H	1.401305	0.530302	0.931777
H337	H	0.574220	0.740232	0.000044
H338	H	0.907554	1.073565	0.333377
H339	H	1.240887	1.406898	0.666710
H340	H	0.580761	0.193774	0.000065
H341	H	0.914094	0.527108	0.333398
H342	H	1.247427	0.860441	0.666731
C343	C	0.832563	0.510291	0.000070
C344	C	1.165896	0.843624	0.333403
C345	C	1.499230	1.176958	0.666736
N346	N	0.875297	0.540756	0.000085
N347	N	1.208630	0.874089	0.333419
N348	N	1.541964	1.207422	0.666752
H349	H	0.770461	0.111716	0.000082
H350	H	1.103794	0.445049	0.333415
H351	H	1.437128	0.778383	0.666749
H352	H	0.769176	0.219466	0.000064
H353	H	1.102510	0.552799	0.333397
H354	H	1.435843	0.886133	0.666730
C355	C	0.778864	0.651722	0.000055
C356	C	1.112197	0.985055	0.333389
C357	C	1.445531	1.318388	0.666722
N358	N	0.822185	0.632993	0.000057
N359	N	1.155518	0.966327	0.333391
N360	N	1.488852	1.299660	0.666724
C361	C	0.109940	-0.073247	0.170808
C362	C	0.443273	0.260086	0.504141
C363	C	0.776607	0.593420	0.837474
N364	N	0.085332	-0.072952	0.216453
N365	N	0.418665	0.260382	0.549787
N366	N	0.751999	0.593715	0.883120
H367	H	0.525567	0.459902	0.000010
H368	H	0.858901	0.793236	0.333344
H369	H	1.192234	1.126569	0.666677
H370	H	0.226177	-0.074649	0.155066
H371	H	0.559511	0.258684	0.488400
H372	H	0.892844	0.592017	0.821733
C373	C	-0.163284	-0.069976	0.115731
C374	C	0.170050	0.263358	0.449064
C375	C	0.503383	0.596691	0.782398
N376	N	-0.187906	-0.069673	0.161367
N377	N	0.145427	0.263660	0.494700
N378	N	0.478761	0.596994	0.828034
C379	C	0.567320	0.075494	0.000050
C380	C	0.900653	0.408827	0.333383
C381	C	1.233987	0.742161	0.666716
N382	N	0.524599	0.045010	0.000036
N383	N	0.857932	0.378343	0.333370
N384	N	1.191265	0.711676	0.666703
C385	C	0.600279	-0.001769	0.140703
C386	C	0.933613	0.331564	0.474037
C387	C	1.266946	0.664897	0.807370
N388	N	0.571931	0.026804	0.114359
N389	N	0.905264	0.360138	0.447692
N390	N	1.238598	0.693471	0.781026
H391	H	0.819115	0.392037	0.000068
H392	H	1.152449	0.725370	0.333401
H393	H	1.485782	1.058704	0.666734
H394	H	0.734614	-0.136371	0.149729
H395	H	1.067948	0.196962	0.483062
H396	H	1.401281	0.530295	0.816396
C397	C	0.512125	0.341642	0.000012
C398	C	0.845458	0.674976	0.333345
C399	C	1.178791	1.008309	0.666678
N400	N	0.469395	0.311172	0.000007
N401	N	0.802728	0.644505	0.333340
N402	N	1.136061	0.977839	0.666674
C403	C	0.507909	-0.078074	0.115714
C404	C	0.841242	0.255259	0.449047
C405	C	1.174575	0.588593	0.782380
N406	N	0.532499	-0.078369	0.161359
N407	N	0.865833	0.254964	0.494693
N408	N	1.199166	0.588297	0.828026
H409	H	0.768996	-0.170725	0.442302
H410	H	1.102330	0.162608	0.775636
H411	H	1.435663	0.495942	1.108969
H412	H	0.391679	-0.076666	0.099976
H413	H	0.725012	0.256668	0.433310
H414	H	1.058345	0.590001	0.766643
C415	C	0.777363	0.776461	0.000050
C416	C	1.110696	1.109795	0.333383
C417	C	1.444030	1.443128	0.666717
N418	N	0.820084	0.806946	0.000048
N419	N	1.153418	1.140279	0.333382
N420	N	1.486751	1.473612	0.666715
H421	H	0.769010	-0.170722	0.557679
H422	H	1.102343	0.162612	0.891012
H423	H	1.435676	0.495945	1.224346
C424	C	0.560771	0.621972	0.000033
C425	C	0.894105	0.955306	0.333366
C426	C	1.227438	1.288639	0.666699
N427	N	0.518039	0.591505	0.000030
N428	N	0.851373	0.924838	0.333363
N429	N	1.184706	1.258172	0.666696
H430	H	0.734678	-0.136367	0.734903
H431	H	1.068011	0.196966	1.068237
H432	H	1.401344	0.530300	1.401570
C433	C	0.565889	0.032522	0.433307
C434	C	0.899223	0.365855	0.766640
C435	C	1.232556	0.699189	1.099974
N436	N	0.537429	0.060995	0.406979
N437	N	0.870762	0.394329	0.740312
N438	N	1.204095	0.727662	1.073645
H439	H	0.734684	-0.136363	0.850303
H440	H	1.068017	0.196970	1.183636
H441	H	1.401351	0.530304	1.516969
H442	H	0.610060	-0.011682	0.850353
H443	H	0.943393	0.321652	1.183687
H444	H	1.276727	0.654985	1.517020
H445	H	0.610057	-0.011672	0.734973
H446	H	0.943391	0.321662	1.068306
H447	H	1.276724	0.654995	1.401639
H448	H	0.575711	0.022703	0.557771
H449	H	0.909044	0.356037	0.891105
H450	H	1.242378	0.689370	1.224438
C451	C	0.600198	-0.001855	0.274283
C452	C	0.933531	0.331478	0.607617
C453	C	1.266865	0.664812	0.940950
N454	N	0.571749	0.026624	0.300643
N455	N	0.905082	0.359958	0.633976
N456	N	1.238416	0.693291	0.967309
H457	H	0.118489	-0.073367	-0.154985
H458	H	0.451823	0.259967	0.178348
H459	H	0.785156	0.593300	0.511682
H460	H	-0.154756	-0.070084	-0.099889
H461	H	0.178578	0.263249	0.233445
H462	H	0.511911	0.596583	0.566778
H463	H	-0.047006	-0.071372	-0.099898
H464	H	0.286328	0.261961	0.233436
H465	H	0.619661	0.595295	0.566769
H466	H	0.499472	-0.077965	-0.099909
H467	H	0.832805	0.255368	0.233425
H468	H	1.166139	0.588702	0.566758
C469	C	0.234721	-0.074765	-0.170732
C470	C	0.568054	0.258568	0.162601
C471	C	0.901387	0.591902	0.495935
N472	N	0.259322	-0.075064	-0.216381
N473	N	0.592655	0.258269	0.116952
N474	N	0.925989	0.591603	0.450285
H475	H	0.391707	-0.076666	-0.099912
H476	H	0.725040	0.256668	0.233422
H477	H	1.058374	0.590001	0.566755
