data_functionalizedCrystal
_audit_creation_method	'MofGen! by Chris Wilmer'
_symmetry_space_group_name_H-M	'P1'
_symmetry_Int_Tables_number	1
_symmetry_cell_setting	triclinic
loop_
_symmetry_equiv_pos_as_xyz
  x,y,z
_cell_length_a	27.731994
_cell_length_b	27.732048
_cell_length_c	26.809956
_cell_angle_alpha	89.988964
_cell_angle_beta	89.981798
_cell_angle_gamma	82.631595
loop_
_atom_site_label
_atom_site_type_symbol
_atom_site_fract_x
_atom_site_fract_y
_atom_site_fract_z
O1	O	0.640958	0.057391	-0.041414
O2	O	0.500161	0.066164	-0.041431
O3	O	0.574933	-0.008620	-0.041412
O4	O	0.566187	0.132175	-0.041432
O5	O	0.574898	-0.008620	0.041547
O6	O	0.500127	0.066164	0.041528
O7	O	0.640924	0.057391	0.041545
Zn8	Zn	0.570520	0.061777	0.054708
Zn9	Zn	0.570565	0.061778	-0.054594
O10	O	0.566153	0.132175	0.041527
C11	C	0.482137	0.065984	0.000046
C12	C	0.428480	0.065442	0.000040
C13	C	0.095743	0.062026	0.045281
C14	C	-0.105915	0.059964	0.045287
O15	O	-0.132004	0.059676	0.083746
N16	N	-0.131111	0.059708	0.000066
C17	C	-0.105889	0.059965	-0.045160
O18	O	-0.131947	0.059695	-0.083623
C19	C	0.095768	0.062023	-0.045165
C20	C	0.120961	0.062283	0.000059
C21	C	0.120936	0.062286	0.090501
C22	C	0.171347	0.062804	0.090499
C23	C	0.196565	0.063062	0.045277
C24	C	0.171372	0.062801	0.000057
C25	C	0.120990	0.062276	-0.090390
C26	C	0.171408	0.062789	-0.090388
C27	C	0.196601	0.063050	-0.045164
C28	C	0.247002	0.063577	-0.045167
N29	N	0.272198	0.063833	0.000054
C30	C	0.246980	0.063575	0.045276
C31	C	-0.211763	0.058885	-0.045154
C32	C	-0.262177	0.058371	-0.045152
C33	C	-0.262199	0.058370	0.045294
C34	C	-0.211784	0.058887	0.045293
C35	C	-0.186567	0.059141	0.000067
C36	C	0.352847	0.064664	0.045268
C37	C	0.403262	0.065184	0.045262
C38	C	0.403280	0.065183	-0.045184
C39	C	0.352869	0.064665	-0.045179
C40	C	0.327654	0.064404	0.000052
O41	O	0.273122	0.063860	-0.083606
O42	O	0.273047	0.063834	0.083733
C43	C	0.045332	0.061508	0.045283
C44	C	0.020139	0.061247	0.000063
C45	C	0.045357	0.061505	-0.045160
C46	C	-0.030275	0.060734	0.000064
C47	C	-0.055494	0.060476	0.045286
C48	C	-0.030297	0.060732	0.090507
C49	C	0.020114	0.061250	0.090505
C50	C	0.020161	0.061250	-0.090381
C51	C	-0.030250	0.060732	-0.090375
C52	C	-0.055468	0.060474	-0.045153
C53	C	0.574732	-0.026627	0.000069
C54	C	0.574179	-0.080282	0.000073
C55	C	0.614884	-0.419105	0.000052
C56	C	0.612833	-0.620764	0.000045
O57	O	0.650055	-0.652027	0.000028
N58	N	0.568496	-0.639879	0.000040
C59	C	0.524670	-0.608576	0.000033
O60	O	0.486912	-0.629462	0.000024
C61	C	0.526721	-0.406918	0.000037
C62	C	0.571060	-0.387805	0.000047
C63	C	0.659220	-0.399992	0.000061
C64	C	0.659732	-0.349580	0.000066
C65	C	0.615908	-0.318281	0.000061
C66	C	0.571573	-0.337394	0.000052
C67	C	0.482895	-0.375615	0.000027
C68	C	0.483412	-0.325198	0.000027
C69	C	0.527751	-0.306086	0.000037
C70	C	0.528262	-0.255683	0.000051
N71	N	0.572598	-0.236567	0.000056
C72	C	0.616421	-0.267867	0.000061
C73	C	0.523596	-0.714450	0.000032
C74	C	0.523083	-0.764864	0.000032
C75	C	0.611246	-0.777049	0.000043
C76	C	0.611759	-0.726633	0.000047
C77	C	0.567932	-0.695335	0.000037
C78	C	0.617494	-0.161998	0.000071
C79	C	0.618002	-0.111581	0.000078
C80	C	0.529839	-0.099401	0.000064
C81	C	0.529331	-0.149813	0.000060
C82	C	0.573162	-0.181111	0.000062
O83	O	0.491060	-0.224391	0.000063
O84	O	0.654174	-0.246971	0.000060
C85	C	0.614372	-0.469517	0.000047
C86	C	0.570036	-0.488629	0.000038
C87	C	0.526213	-0.457330	0.000033
C88	C	0.569523	-0.539043	0.000038
C89	C	0.613346	-0.570343	0.000043
C90	C	0.657683	-0.551228	0.000048
C91	C	0.658195	-0.500816	0.000052
C92	C	0.481876	-0.476445	0.000028
C93	C	0.481367	-0.526857	0.000024
C94	C	0.525191	-0.558157	0.000029
C95	C	0.658949	0.057571	0.000067
C96	C	0.712605	0.058114	0.000070
C97	C	0.566353	0.150182	0.000045
C98	C	0.566906	0.203837	0.000037
N99	N	0.570493	0.061776	0.129304
C100	C	0.537419	0.094878	0.526179
C101	C	0.537395	0.094878	0.317302
O102	O	0.509217	0.123017	0.290294
N103	N	0.570508	0.061775	0.291183
C104	C	0.603628	0.028668	0.317287
O105	O	0.631788	0.000509	0.290278
C106	C	0.603649	0.028667	0.526163
C107	C	0.570537	0.061775	0.552280
C108	C	0.504309	0.127983	0.552296
C109	C	0.504317	0.127985	0.604512
C110	C	0.537435	0.094881	0.630612
C111	C	0.570545	0.061776	0.604496
C112	C	0.636765	-0.004442	0.552266
C113	C	0.636767	-0.004441	0.604489
C114	C	0.603655	0.028667	0.630605
C115	C	0.603670	0.028674	0.682812
N116	N	0.570557	0.061777	0.708931
C117	C	0.537440	0.094881	0.682831
C118	C	0.603615	0.028672	0.207623
C119	C	0.603610	0.028673	0.155405
C120	C	0.537377	0.094882	0.155423
C121	C	0.537384	0.094883	0.207643
C122	C	0.570502	0.061775	0.233742
C123	C	0.537459	0.094881	0.792489
C124	C	0.537472	0.094881	0.844710
C125	C	0.603703	0.028671	0.844687
C126	C	0.603692	0.028672	0.792470
C127	C	0.570567	0.061779	0.766373
O128	O	0.631831	0.000547	0.709852
O129	O	0.509276	0.123028	0.709848
C130	C	0.537411	0.094877	0.473963
C131	C	0.570521	0.061772	0.447847
C132	C	0.603638	0.028668	0.473947
C133	C	0.570516	0.061773	0.395628
C134	C	0.537398	0.094876	0.369528
C135	C	0.504285	0.127979	0.395647
C136	C	0.504293	0.127980	0.447863
C137	C	0.636751	-0.004435	0.447828
C138	C	0.636741	-0.004433	0.395612
C139	C	0.603623	0.028671	0.369512
N140	N	0.570589	0.061778	0.870810
H141	H	0.040621	0.061462	0.127331
H142	H	0.663728	-0.031402	0.531010
H143	H	-0.282686	0.058167	-0.081978
H144	H	0.694301	-0.485260	0.000060
H145	H	0.486977	-0.780420	0.000033
H146	H	0.510422	0.121842	0.228904
H147	H	0.510412	0.121837	0.134164
H148	H	0.477354	0.154943	0.625773
O149	O	-0.057412	0.060438	-0.139160
H150	H	-0.052286	0.093489	-0.160861
O151	O	-0.184566	0.059164	-0.093935
H152	H	-0.210562	0.058906	-0.125375
H153	H	0.423822	0.065395	-0.082003
O154	O	0.672455	-0.040147	0.367445
H155	H	0.695479	-0.063167	0.394373
H156	H	0.423772	0.065397	0.082091
H157	H	0.100409	0.062075	0.127329
H158	H	0.630578	0.001718	0.134144
H159	H	0.477339	0.154940	0.531049
O160	O	0.658512	-0.810815	0.000049
H161	H	0.689433	-0.789059	0.000055
O162	O	0.468559	0.163675	0.367486
H163	H	0.488725	0.187020	0.343671
O164	O	0.639345	-0.007031	0.235771
H165	H	0.662372	-0.030041	0.208832
H166	H	0.447722	-0.299716	0.000018
O167	O	0.325652	0.064388	0.094051
H168	H	0.351646	0.064661	0.125491
H169	H	-0.050839	0.060524	0.127329
H170	H	0.663734	-0.031403	0.625736
O171	O	0.198509	0.063093	0.139280
H172	H	0.193385	0.030037	0.160973
O173	O	0.639396	-0.007037	0.764289
H174	H	0.677039	-0.001157	0.774281
H175	H	0.446789	-0.391167	0.000016
H176	H	0.100487	0.062063	-0.127217
H177	H	0.630668	0.001719	0.865946
H178	H	0.191937	0.062996	-0.127217
O179	O	0.468590	0.163700	0.476029
H180	H	0.445565	0.186717	0.449100
O181	O	0.481506	-0.170426	0.000056
H182	H	0.479147	-0.193108	0.033867
H183	H	0.663719	-0.031392	0.469075
H184	H	0.693365	-0.576720	0.000054
O185	O	0.476323	-0.680693	0.000033
H186	H	0.445411	-0.702460	0.000037
O187	O	0.047353	0.061530	-0.139161
H188	H	0.074879	0.028806	-0.141329
H189	H	-0.191276	0.059100	0.082118
H190	H	0.446189	-0.450966	0.000023
O191	O	-0.289420	0.058220	0.094072
H192	H	-0.328714	0.057863	0.086470
O193	O	0.706491	-0.433746	0.000069
H194	H	0.708351	-0.457011	0.033881
O195	O	0.482573	-0.065638	0.000058
H196	H	0.490383	-0.027373	0.000057
O197	O	0.325691	0.064386	-0.093954
H198	H	0.351699	0.064650	-0.125399
H199	H	0.654110	-0.096023	0.000087
O200	O	0.659580	-0.706020	0.000048
H201	H	0.689965	-0.736259	0.000047
H202	H	0.510508	0.121844	0.865972
O203	O	0.664767	-0.195751	0.000080
H204	H	0.695679	-0.173984	0.000093
H205	H	0.695837	-0.334024	0.000072
H206	H	0.445258	-0.542413	0.000020
O207	O	0.501736	0.130592	0.764344
H208	H	0.478720	0.153613	0.791284
