data_functionalizedCrystal
_audit_creation_method	'MofGen! by Chris Wilmer'
_symmetry_space_group_name_H-M	'P1'
_symmetry_Int_Tables_number	1
_symmetry_cell_setting	triclinic
loop_
_symmetry_equiv_pos_as_xyz
  x,y,z
_cell_length_a	29.839134
_cell_length_b	18.101395
_cell_length_c	18.101390
_cell_angle_alpha	90.031336
_cell_angle_beta	90.020567
_cell_angle_gamma	90.009416
loop_
_atom_site_label
_atom_site_type_symbol
_atom_site_fract_x
_atom_site_fract_y
_atom_site_fract_z
Zn1	Zn	-0.686783	0.295230	-0.418765
Zn2	Zn	-0.186783	0.795230	0.081235
Zn3	Zn	-0.686720	0.419087	-0.294927
Zn4	Zn	-0.186720	0.919087	0.205073
Zn5	Zn	-0.611657	0.295217	-0.294935
Zn6	Zn	-0.111657	0.795217	0.205065
Zn7	Zn	-0.611627	0.418987	-0.418725
Zn8	Zn	-0.111627	0.918987	0.081275
O9	O	-0.649197	0.357130	-0.356838
O10	O	-0.149197	0.857130	0.143162
O11	O	-0.749642	0.311707	-0.402352
O12	O	-0.249642	0.811707	0.097648
O13	O	-0.676748	0.402691	-0.191295
O14	O	-0.176748	0.902691	0.308705
O15	O	-0.621661	0.191586	-0.311382
O16	O	-0.121661	0.691586	0.188618
O17	O	-0.749595	0.402704	-0.311368
O18	O	-0.249595	0.902704	0.188632
O19	O	-0.676857	0.191595	-0.402359
O20	O	-0.176857	0.691595	0.097641
O21	O	-0.621600	0.311685	-0.191301
O22	O	-0.121600	0.811685	0.308699
O23	O	-0.548786	0.311588	-0.311343
O24	O	-0.048786	0.811588	0.188657
O25	O	-0.621611	0.402534	-0.522363
O26	O	-0.121611	0.902534	-0.022363
O27	O	-0.548764	0.402522	-0.402290
O28	O	-0.048764	0.902522	0.097710
O29	O	-0.676828	0.311610	-0.522393
O30	O	-0.176828	0.811610	-0.022393
O31	O	-0.676720	0.522707	-0.311329
O32	O	-0.176720	1.022707	0.188671
O33	O	-0.621550	0.522633	-0.402282
O34	O	-0.121550	1.022633	0.097718
C35	C	-0.532474	0.357043	-0.356813
C36	C	-0.032474	0.857043	0.143187
C37	C	-0.482540	0.357024	-0.356820
C38	C	0.017460	0.857024	0.143180
C39	C	-0.125973	0.309813	-0.404287
C40	C	0.374027	0.809813	0.095713
C41	C	-0.313646	0.309765	-0.404277
C42	C	0.186354	0.809765	0.095723
O43	O	-0.337928	0.269552	-0.444644
O44	O	0.162072	0.769552	0.055356
N45	N	-0.337095	0.357063	-0.356832
N46	N	0.162905	0.857063	0.143168
C47	C	-0.313622	0.404379	-0.309390
C48	C	0.186378	0.904379	0.190610
O49	O	-0.337873	0.444613	-0.269041
O50	O	0.162127	0.944613	0.230959
C51	C	-0.125950	0.404430	-0.309405
C52	C	0.374050	0.904430	0.190595
C53	C	-0.102504	0.357124	-0.356847
C54	C	0.397496	0.857124	0.143153
C55	C	-0.102526	0.262511	-0.451727
C56	C	0.397474	0.762511	0.048273
C57	C	-0.055611	0.262521	-0.451726
C58	C	0.444389	0.762521	0.048274
C59	C	-0.032142	0.309832	-0.404286
C60	C	0.467858	0.809832	0.095714
C61	C	-0.055588	0.357133	-0.356847
C62	C	0.444412	0.857133	0.143153
C63	C	-0.102478	0.451749	-0.261967
C64	C	0.397522	0.951749	0.238033
C65	C	-0.055557	0.451759	-0.261976
C66	C	0.444443	0.951759	0.238024
C67	C	-0.032111	0.404453	-0.309419
C68	C	0.467889	0.904453	0.190581
C69	C	0.014796	0.404454	-0.309406
C70	C	0.514796	0.904454	0.190594
N71	N	0.038245	0.357156	-0.356851
N72	N	0.538245	0.857156	0.143149
C73	C	0.014776	0.309845	-0.404291
C74	C	0.514776	0.809845	0.095709
C75	C	-0.412153	0.404348	-0.309385
C76	C	0.087847	0.904348	0.190615
C77	C	-0.459071	0.404335	-0.309380
C78	C	0.040929	0.904335	0.190620
C79	C	-0.459091	0.309722	-0.404268
C80	C	0.040909	0.809722	0.095732
C81	C	-0.412172	0.309732	-0.404269
C82	C	0.087828	0.809732	0.095731
C83	C	-0.388704	0.357051	-0.356830
C84	C	0.111296	0.857051	0.143170
C85	C	0.113302	0.309868	-0.404285
C86	C	0.613302	0.809868	0.095715
C87	C	0.160221	0.309880	-0.404278
C88	C	0.660221	0.809880	0.095722
C89	C	0.160238	0.404495	-0.309393
C90	C	0.660238	0.904495	0.190607
C91	C	0.113322	0.404481	-0.309397
C92	C	0.613322	0.904481	0.190603
C93	C	0.089855	0.357165	-0.356849
C94	C	0.589855	0.857165	0.143151
O95	O	0.039107	0.444652	-0.269066
O96	O	0.539107	0.944652	0.230934
O97	O	0.039035	0.269629	-0.444646
O98	O	0.539035	0.769629	0.055354
C99	C	-0.172888	0.309803	-0.404288
C100	C	0.327112	0.809803	0.095712
C101	C	-0.196335	0.357105	-0.356849
C102	C	0.303665	0.857105	0.143151
C103	C	-0.172866	0.404416	-0.309409
C104	C	0.327134	0.904416	0.190591
C105	C	-0.243252	0.357091	-0.356844
C106	C	0.256748	0.857091	0.143156
C107	C	-0.266722	0.309780	-0.404284
C108	C	0.233278	0.809780	0.095716
C109	C	-0.243273	0.262483	-0.451729
C110	C	0.256727	0.762483	0.048271
C111	C	-0.196357	0.262492	-0.451728
C112	C	0.303643	0.762492	0.048272
C113	C	-0.196314	0.451713	-0.261964
C114	C	0.303686	0.951713	0.238036
C115	C	-0.243230	0.451699	-0.261968
C116	C	0.256770	0.951699	0.238032
C117	C	-0.266699	0.404388	-0.309408
C118	C	0.233301	0.904388	0.190592
C119	C	-0.649137	0.549541	-0.356816
C120	C	-0.149137	1.049541	0.143184
C121	C	-0.649152	0.631855	-0.356832
C122	C	-0.149152	1.131855	0.143168
C123	C	-0.649223	0.357063	-0.550000
C124	C	-0.149223	0.857063	-0.050000
C125	C	-0.649235	0.357034	-0.632314
C126	C	-0.149235	0.857034	-0.132314
C127	C	0.233625	0.357202	-0.356854
C128	C	0.733625	0.857202	0.143146
C129	C	0.183691	0.357191	-0.356838
C130	C	0.683691	0.857191	0.143162
C131	C	-0.649269	0.163968	-0.356876
C132	C	-0.149269	0.663968	0.143124
C133	C	-0.649300	0.081654	-0.356893
C134	C	-0.149300	0.581654	0.143107
C135	C	-0.649251	0.930946	-0.356872
C136	C	-0.149251	1.430946	0.143128
C137	C	-0.614620	0.899605	-0.414239
C138	C	-0.114620	1.399605	0.085761
C139	C	-0.614455	0.813987	-0.414060
C140	C	-0.114455	1.313987	0.085940
C141	C	-0.649202	0.782563	-0.356853
C142	C	-0.149202	1.282563	0.143147
C143	C	-0.636384	0.813712	-0.278803
C144	C	-0.136384	1.313712	0.221197
C145	C	-0.636160	0.899357	-0.279146
C146	C	-0.136160	1.399357	0.220854
C147	C	-0.696775	0.899318	-0.376867
C148	C	-0.196775	1.399318	0.123133
C149	C	-0.696496	0.813666	-0.378579
C150	C	-0.196496	1.313666	0.121421
C151	C	-0.649175	0.698704	-0.356837
C152	C	-0.149175	1.198704	0.143163
C153	C	-0.649276	1.014805	-0.356882
C154	C	-0.149276	1.514805	0.143118
C155	C	-0.649259	0.356988	-0.931405
C156	C	-0.149259	0.856988	-0.431405
C157	C	-0.684114	0.299982	-0.900099
C158	C	-0.184114	0.799982	-0.400099
C159	C	-0.684006	0.299770	-0.814481
C160	C	-0.184006	0.799770	-0.314481
C161	C	-0.649247	0.357011	-0.783023
C162	C	-0.149247	0.857011	-0.283023
C163	C	-0.601920	0.335778	-0.814094
C164	C	-0.101920	0.835778	-0.314094
C165	C	-0.602129	0.335350	-0.899740
C166	C	-0.102129	0.835350	-0.399740
C167	C	-0.661314	0.435372	-0.899820
C168	C	-0.161314	0.935372	-0.399820
C169	C	-0.662353	0.434973	-0.814170
C170	C	-0.162353	0.934973	-0.314170
C171	C	-0.649238	0.357025	-0.699163
C172	C	-0.149238	0.857025	-0.199163
C173	C	-0.649265	0.356972	-1.015265
C174	C	-0.149265	0.856972	-0.515265
C175	C	-0.649196	0.357144	-0.164428
C176	C	-0.149196	0.857144	0.335572
C177	C	-0.649272	0.356964	-0.082114
C178	C	-0.149272	0.856964	0.417886
H179	H	-0.121630	0.223984	-0.490362
H180	H	0.378370	0.723984	0.009638
H181	H	-0.478208	0.271197	-0.442894
H182	H	0.021792	0.771197	0.057106
H183	H	-0.579607	0.921171	-0.401161
H184	H	-0.079607	1.421171	0.098839
Cl185	Cl	-0.674100	0.782293	-0.211007
Cl186	Cl	-0.174100	1.282293	0.288993
Cl187	Cl	-0.560664	0.396649	-0.931715
Cl188	Cl	-0.060664	0.896649	-0.431715
H189	H	-0.719100	0.313071	-0.793474
H190	H	-0.219100	0.813071	-0.293474
Cl191	Cl	-0.738476	0.320257	-0.931913
Cl192	Cl	-0.238476	0.820257	-0.431913
Cl193	Cl	-0.671952	0.210828	-0.933347
Cl194	Cl	-0.171952	0.710828	-0.433347
H195	H	-0.676026	0.241702	-0.794006
H196	H	-0.176026	0.741702	-0.294006
Cl197	Cl	-0.560735	0.397909	-0.782641
Cl198	Cl	-0.060735	0.897909	-0.282641
H199	H	-0.706162	0.793305	-0.436019
H200	H	-0.206162	1.293305	0.063981
H201	H	-0.708462	0.920869	-0.432811
H202	H	-0.208462	1.420869	0.067189
H203	H	-0.591514	0.279115	-0.792654
H204	H	-0.091514	0.779115	-0.292654
Cl205	Cl	-0.166817	0.511187	-0.202310
Cl206	Cl	0.333183	1.011187	0.297690
Cl207	Cl	-0.382702	0.250261	-0.463914
Cl208	Cl	0.117298	0.750261	0.036086
H209	H	-0.262390	0.223957	-0.490353
H210	H	0.237610	0.723957	0.009647
H211	H	-0.635930	0.477848	-0.920071
H212	H	-0.135930	0.977848	-0.420071
Cl213	Cl	-0.738442	0.780633	-0.318775
Cl214	Cl	-0.238442	1.280633	0.181225
H215	H	-0.622475	0.792924	-0.471933
H216	H	-0.122475	1.292924	0.028067
Cl217	Cl	-0.026143	0.203054	-0.511378
Cl218	Cl	0.473857	0.703054	-0.011378
H219	H	-0.591909	0.278051	-0.919729
H220	H	-0.091909	0.778051	-0.419729
H221	H	0.179309	0.271354	-0.442911
H222	H	0.679309	0.771354	0.057089
H223	H	-0.478157	0.442848	-0.270740
H224	H	0.021843	0.942848	0.229260
Cl225	Cl	-0.716128	0.459692	-0.782822
Cl226	Cl	-0.216128	0.959692	-0.282822
Cl227	Cl	0.189751	0.463968	-0.249756
Cl228	Cl	0.689751	0.963968	0.250244
H229	H	-0.622560	0.920154	-0.472300
H230	H	-0.122560	1.420154	0.027700
H231	H	-0.177272	0.223971	-0.490361
H232	H	0.322728	0.723971	0.009639
Cl233	Cl	-0.382656	0.463830	-0.249730
Cl234	Cl	0.117344	0.963830	0.250270
Cl235	Cl	-0.713684	0.465181	-0.933178
Cl236	Cl	-0.213684	0.965181	-0.433178
H237	H	-0.638812	0.479731	-0.792753
H238	H	-0.138812	0.979731	-0.292753
H239	H	-0.121560	0.490271	-0.223334
H240	H	0.378440	0.990271	0.276666
H241	H	-0.579229	0.793543	-0.400815
H242	H	-0.079229	1.293543	0.099185
H243	H	-0.601420	0.919380	-0.262208
H244	H	-0.101420	1.419380	0.237792
H245	H	0.094201	0.271339	-0.442924
H246	H	0.594201	0.771339	0.057076
Cl247	Cl	0.083846	0.463957	-0.249760
Cl248	Cl	0.583846	0.963957	0.250240
Cl249	Cl	-0.026057	0.511254	-0.202339
Cl250	Cl	0.473943	1.011254	0.297661
Cl251	Cl	-0.736613	0.930626	-0.312370
Cl252	Cl	-0.236613	1.430626	0.187630
Cl253	Cl	-0.673409	0.931375	-0.210898
Cl254	Cl	-0.173409	1.431375	0.289102
Cl255	Cl	-0.583314	0.780671	-0.252182
Cl256	Cl	-0.083314	1.280671	0.247818
Cl257	Cl	-0.272699	0.511169	-0.202312
Cl258	Cl	0.227301	1.011169	0.297688
