data_functionalizedCrystal
_audit_creation_method	'MofGen! by Chris Wilmer'
_symmetry_space_group_name_H-M	'P1'
_symmetry_Int_Tables_number	1
_symmetry_cell_setting	triclinic
loop_
_symmetry_equiv_pos_as_xyz
  x,y,z
_cell_length_a	15.944551
_cell_length_b	15.944551
_cell_length_c	9.730223
_cell_angle_alpha	89.994648
_cell_angle_beta	90.001200
_cell_angle_gamma	83.498738
loop_
_atom_site_label
_atom_site_type_symbol
_atom_site_fract_x
_atom_site_fract_y
_atom_site_fract_z
O1	O	1.114523	0.108332	-0.114150
O2	O	0.869973	0.121688	-0.114184
O3	O	0.998926	-0.007265	-0.114153
O4	O	0.985570	0.237285	-0.114180
O5	O	0.998918	-0.007268	0.114426
O6	O	0.869965	0.121685	0.114396
O7	O	1.114514	0.108328	0.114430
Zn8	Zn	0.992238	0.115006	0.150705
Zn9	Zn	0.992249	0.115010	-0.150459
O10	O	0.985562	0.237281	0.114400
C11	C	0.838675	0.121132	0.000102
C12	C	0.745429	0.119470	0.000089
C13	C	0.530572	0.035565	0.000125
C14	C	0.469556	0.074529	-0.112582
C15	C	0.574703	0.116462	0.000105
C16	C	0.469570	0.074545	0.112780
C17	C	0.409790	0.113551	0.000127
C18	C	0.514915	0.155449	-0.112694
C19	C	0.514936	0.155453	0.112769
C20	C	0.453937	0.194476	0.000035
C21	C	0.669705	0.118137	0.000091
C22	C	0.314789	0.111883	0.000131
C23	C	0.998367	-0.038561	0.000137
C24	C	0.996705	-0.131807	0.000137
C25	C	0.912801	-0.346663	0.000106
C26	C	0.951759	-0.407682	0.112816
C27	C	0.993698	-0.302533	0.000126
C28	C	0.951786	-0.407662	-0.112546
C29	C	0.990787	-0.467445	0.000110
C30	C	1.032678	-0.362323	0.112928
C31	C	1.032694	-0.362297	-0.112535
C32	C	1.071711	-0.423298	0.000202
C33	C	0.995372	-0.207530	0.000137
C34	C	0.989119	-0.562446	0.000109
C35	C	1.145813	0.108885	0.000142
C36	C	1.239059	0.110547	0.000145
C37	C	0.986120	0.268577	0.000107
C38	C	0.987782	0.361823	0.000097
N39	N	0.992237	0.115002	0.356242
N40	N	0.992257	0.115007	-0.355995
C41	C	1.049357	0.057926	0.428181
C42	C	1.049365	0.057926	0.572064
C43	C	0.935131	0.172087	0.572055
C44	C	0.935120	0.172082	0.428175
H45	H	0.449481	0.040312	0.208061
H46	H	1.138919	-0.456457	0.000275
F47	F	1.110158	-0.002824	0.648623
F48	F	1.077385	-0.335981	-0.237075
H49	H	0.917539	-0.427792	0.208093
F50	F	0.410594	0.282319	-0.000053
F51	F	0.907049	-0.433921	-0.237084
H52	H	0.888629	0.218561	0.630638
H53	H	0.845652	-0.313356	0.000209
F54	F	0.574108	-0.052202	-0.000007
F55	F	1.077362	-0.336200	0.237611
H56	H	0.449449	0.040315	-0.207860
F57	F	0.541042	0.200140	-0.237375
H58	H	0.535064	0.189639	0.208052
F59	F	1.110144	-0.002825	0.351630
F60	F	0.874319	0.232830	0.351606
