data_functionalizedCrystal
_audit_creation_method	'MofGen! by Chris Wilmer'
_symmetry_space_group_name_H-M	'P1'
_symmetry_Int_Tables_number	1
_symmetry_cell_setting	triclinic
loop_
_symmetry_equiv_pos_as_xyz
  x,y,z
_cell_length_a	10.654562
_cell_length_b	12.837938
_cell_length_c	9.730223
_cell_angle_alpha	89.998483
_cell_angle_beta	89.996961
_cell_angle_gamma	90.340628
loop_
_atom_site_label
_atom_site_type_symbol
_atom_site_fract_x
_atom_site_fract_y
_atom_site_fract_z
O1	O	1.683732	-0.145782	-0.114372
O2	O	1.319770	-0.159652	-0.114354
O3	O	1.493681	-0.001756	-0.114363
O4	O	1.509821	-0.303678	-0.114363
O5	O	1.493679	-0.001760	0.114217
O6	O	1.319768	-0.159656	0.114226
O7	O	1.683731	-0.145786	0.114208
Zn8	Zn	1.501749	-0.152721	0.150509
Zn9	Zn	1.501751	-0.152716	-0.150655
O10	O	1.509819	-0.303682	0.114217
C11	C	1.272860	-0.158633	-0.000062
C12	C	1.133084	-0.155577	-0.000055
C13	C	1.067397	-0.154155	0.124533
C14	C	0.936062	-0.151292	0.124510
C15	C	0.936113	-0.151280	-0.124700
C16	C	1.067446	-0.154135	-0.124676
C17	C	1.067366	-0.154166	0.268413
C18	C	0.936031	-0.151304	0.268390
C19	C	1.488228	0.036902	-0.000076
C20	C	1.471966	0.152097	-0.000084
C21	C	1.667470	0.391643	-0.000137
C22	C	1.652197	0.499879	-0.000145
C23	C	1.426145	0.476808	-0.000119
C24	C	1.441419	0.368572	-0.000111
C25	C	1.562085	0.325993	-0.000118
C26	C	1.577358	0.217755	-0.000100
C27	C	1.351308	0.194686	-0.000083
C28	C	1.336034	0.302922	-0.000091
C29	C	1.730641	-0.146805	-0.000087
C30	C	1.870417	-0.149860	-0.000103
C31	C	1.515273	0.657660	-0.000088
C32	C	1.531538	0.542466	-0.000134
N33	N	1.501756	-0.152724	0.356046
N34	N	1.501753	-0.152705	-0.356191
C35	C	1.578789	-0.082832	0.427967
C36	C	1.578784	-0.082819	0.571850
C37	C	1.424711	-0.222601	0.571877
C38	C	1.424710	-0.222608	0.427996
C39	C	1.667746	-0.002133	0.427953
C40	C	1.667741	-0.002120	0.571836
H41	H	1.675611	0.183090	-0.000100
H42	H	1.761687	-0.027406	0.383323
O43	O	1.616491	0.097716	0.630958
H44	H	1.589320	0.150638	0.545945
H45	H	1.105801	-0.082466	0.323665
H46	H	1.637601	0.077614	0.388900
H47	H	0.898186	-0.075638	0.313036
O48	O	1.797608	0.345706	-0.000146
H49	H	1.868325	0.409542	-0.000167
O50	O	1.798140	-0.025679	0.623578
H51	H	1.861981	-0.037233	0.534803
H52	H	1.738012	0.553328	-0.000165
H53	H	1.327904	0.511495	-0.000128
H54	H	0.897569	-0.223007	0.323626
H55	H	1.237791	0.337605	-0.000091
O56	O	1.237629	0.123880	-0.000067
H57	H	1.268517	0.041462	-0.000070
H58	H	1.120924	-0.155277	-0.226128
H59	H	0.882655	-0.150106	-0.226162
O60	O	1.341620	-0.297985	0.350416
H61	H	1.288058	-0.346582	0.424624
O62	O	1.341624	-0.297982	0.649479
H63	H	1.354571	-0.286241	0.761612
H64	H	1.105197	-0.229834	0.313056
