data_functionalizedCrystal
_audit_creation_method	'MofGen! by Chris Wilmer'
_symmetry_space_group_name_H-M	'P1'
_symmetry_Int_Tables_number	1
_symmetry_cell_setting	triclinic
loop_
_symmetry_equiv_pos_as_xyz
  x,y,z
_cell_length_a	17.038272
_cell_length_b	10.540510
_cell_length_c	9.016244
_cell_angle_alpha	89.992396
_cell_angle_beta	89.997742
_cell_angle_gamma	87.812433
loop_
_atom_site_label
_atom_site_type_symbol
_atom_site_fract_x
_atom_site_fract_y
_atom_site_fract_z
O1	O	0.110135	1.696188	-0.123352
O2	O	0.120547	1.327742	-0.123353
O3	O	0.001513	1.509775	-0.123340
O4	O	0.229169	1.514155	-0.123364
O5	O	0.001516	1.509747	0.123340
O6	O	0.120550	1.327714	0.123328
O7	O	0.110138	1.696160	0.123329
Cu8	Cu	0.115344	1.511934	0.145853
Cu9	Cu	0.115341	1.511968	-0.145876
O10	O	0.229171	1.514127	0.123317
C11	C	0.119772	1.280352	-0.000012
C12	C	0.117451	1.139185	-0.000012
C13	C	0.200143	0.929443	-0.000588
C14	C	0.202619	1.076270	-0.000023
C15	C	0.073855	1.090343	0.140855
C16	C	0.071982	0.943407	0.140965
C17	C	0.070205	0.943467	-0.139557
C18	C	0.074245	1.090185	-0.141411
C19	C	-0.027636	1.505778	-0.000000
C20	C	-0.114497	1.493894	-0.000001
C21	C	-0.163991	1.603005	0.000001
C22	C	-0.245605	1.591831	-0.000013
C23	C	-0.277723	1.471544	-0.000018
C24	C	-0.228222	1.362425	-0.000025
C25	C	-0.146610	1.373600	-0.000021
C26	C	-0.523705	1.432064	-0.000039
C27	C	-0.605324	1.420897	-0.000038
C28	C	-0.622701	1.650304	-0.000029
C29	C	-0.541087	1.661469	-0.000016
C30	C	-0.491593	1.552349	-0.000030
C31	C	-0.361146	1.460120	-0.000028
C32	C	-0.408172	1.563775	-0.000031
C33	C	0.258321	1.518124	-0.000027
C34	C	0.345181	1.530008	-0.000036
C35	C	0.110912	1.743550	-0.000014
C36	C	0.113234	1.884717	-0.000024
N37	N	0.115346	1.511920	0.351039
N38	N	0.115333	1.511991	-0.351062
C39	C	0.178807	1.414207	0.586065
C40	C	0.179045	1.414459	0.414174
C41	C	0.133907	1.646376	0.413375
C42	C	0.134356	1.645852	0.585320
C43	C	0.033115	1.476475	0.585591
C44	C	0.033648	1.473480	0.413637
H45	H	0.236935	1.107863	0.101120
H46	H	0.240044	1.438048	0.373021
H47	H	0.088937	1.721238	0.372476
H48	H	-0.483417	1.343211	-0.000050
H49	H	-0.106312	1.284750	-0.000023
H50	H	-0.015855	1.539390	0.370666
H51	H	0.194340	1.675802	0.625403
H52	H	0.233323	0.890597	-0.101613
H53	H	0.167812	1.314255	0.627459
H54	H	0.089987	1.721357	0.626907
H55	H	0.233134	0.889002	0.099857
H56	H	0.239461	1.437532	0.629252
H57	H	-0.382018	1.661712	-0.000060
H58	H	-0.663008	1.739142	-0.000020
H59	H	0.193213	1.676807	0.370291
H60	H	0.011155	1.131883	0.146101
H61	H	-0.014129	1.547681	0.626248
H62	H	0.105965	1.121775	-0.245624
H63	H	0.097062	0.903437	-0.246328
H64	H	0.236726	1.108809	-0.101007
H65	H	-0.631471	1.322941	-0.000018
H66	H	-0.387305	1.362182	-0.000029
H67	H	0.019578	1.374528	0.372896
H68	H	0.104134	1.124009	0.245683
H69	H	0.167878	1.314799	0.372031
H70	H	0.015447	1.380089	0.629040
H71	H	0.101778	0.905958	0.246259
H72	H	0.012065	1.133454	-0.149911
H73	H	-0.137848	1.700954	0.000015
H74	H	0.008281	0.914469	0.147370
H75	H	0.006261	0.915349	-0.140503
H76	H	-0.514943	1.759418	-0.000012
H77	H	-0.285901	1.680681	-0.000008
H78	H	-0.254379	1.264485	-0.000038
