data_functionalizedCrystal
_audit_creation_method	'MofGen! by Chris Wilmer'
_symmetry_space_group_name_H-M	'P1'
_symmetry_Int_Tables_number	1
_symmetry_cell_setting	triclinic
loop_
_symmetry_equiv_pos_as_xyz
  x,y,z
_cell_length_a	19.188925
_cell_length_b	19.188930
_cell_length_c	9.482944
_cell_angle_alpha	100.459937
_cell_angle_beta	100.502887
_cell_angle_gamma	83.143665
loop_
_atom_site_label
_atom_site_type_symbol
_atom_site_fract_x
_atom_site_fract_y
_atom_site_fract_z
O1	O	0.935881	0.096829	0.120946
O2	O	0.732569	0.108567	0.120945
O3	O	0.840090	0.001040	0.120917
O4	O	0.828361	0.204356	0.120974
O5	O	0.820620	-0.018314	-0.120881
O6	O	0.713099	0.089213	-0.120853
O7	O	0.916411	0.077475	-0.120852
Cu8	Cu	0.812978	0.081577	-0.142930
Cu9	Cu	0.836003	0.104465	0.143024
O10	O	0.808891	0.185002	-0.120824
C11	C	0.696823	0.098510	0.000045
C12	C	0.619318	0.097371	0.000043
C13	C	0.057550	0.152836	0.000062
C14	C	0.130374	0.153913	0.000070
C15	C	0.175306	0.090820	0.000050
C16	C	0.147413	0.026647	0.000059
C17	C	0.074592	0.025573	0.000065
N18	N	0.289355	0.038554	-0.082273
N19	N	0.358531	0.039579	-0.082282
C20	C	0.394714	0.094052	0.000034
N21	N	0.359104	0.147472	0.082340
N22	N	0.289921	0.146449	0.082343
C23	C	0.254270	0.091977	0.000044
C24	C	0.501564	0.159390	0.000044
C25	C	0.574390	0.160465	0.000061
C26	C	0.591427	0.033196	0.000035
C27	C	0.518604	0.032123	0.000033
C28	C	0.473675	0.095222	0.000030
C29	C	0.829975	-0.034649	0.000014
C30	C	0.828833	-0.112154	0.000002
C31	C	0.891924	-0.157080	-0.000005
C32	C	0.890854	-0.229902	0.000018
C33	C	0.826688	-0.257797	0.000019
C34	C	0.763590	-0.212861	0.000033
C35	C	0.764662	-0.140039	0.000025
N36	N	0.771014	-0.372388	-0.082270
N37	N	0.769999	-0.441566	-0.082265
C38	C	0.823452	-0.477203	0.000048
N39	N	0.877967	-0.441052	0.082338
N40	N	0.878984	-0.371868	0.082326
C41	C	0.825517	-0.336759	0.000029
C42	C	0.885387	-0.601091	0.000069
C43	C	0.884315	-0.673913	0.000101
C44	C	0.757048	-0.656872	0.000102
C45	C	0.758123	-0.584050	0.000084
C46	C	0.822293	-0.556165	0.000061
C47	C	0.952158	0.087531	0.000051
C48	C	1.029663	0.088671	0.000063
C49	C	0.819006	0.220690	0.000082
C50	C	0.820149	0.298197	0.000104
N51	N	0.796788	0.065478	-0.344055
C52	C	0.831223	0.099716	-0.416245
C53	C	0.817758	0.086315	-0.583666
N54	N	0.852199	0.120558	0.344148
H55	H	0.495898	-0.020127	0.000024
H56	H	0.628012	-0.018176	0.000030
N57	N	0.904462	0.172527	-0.573558
H58	H	0.879101	0.211882	-0.510403
H59	H	0.925578	0.193479	-0.644829
N60	N	0.765501	0.034340	-0.665961
H61	H	0.744372	0.013331	-0.594784
H62	H	0.790915	-0.004970	-0.729108
H63	H	0.711345	-0.235578	0.000037
N64	N	0.604476	0.229672	0.000055
H65	H	0.641527	0.240133	0.089691
H66	H	0.564922	0.269436	-0.000005
N67	N	0.883474	0.151692	-0.333944
H68	H	0.904604	0.172700	-0.405121
H69	H	0.922680	0.126109	-0.270781
N70	N	0.009082	0.220879	-0.000067
H71	H	0.037799	0.261688	-0.000109
H72	H	-0.014318	0.230426	0.089531
N73	N	0.160463	0.223122	0.000071
H74	H	0.120951	0.262931	0.000073
H75	H	0.183086	0.219156	-0.089571
H76	H	0.706747	-0.547471	0.000081
H77	H	0.713285	-0.103460	0.000030
N78	N	0.195872	-0.041405	0.000043
H79	H	0.246236	-0.030989	0.000033
H80	H	0.179641	-0.076557	-0.089597
N81	N	0.744537	0.013502	-0.426356
H82	H	0.705289	0.039038	-0.489521
H83	H	0.723461	-0.007493	-0.355086
H84	H	0.944177	-0.134380	-0.000019
H85	H	0.942232	-0.266487	0.000019
H86	H	0.704803	-0.679583	0.000110
N87	N	0.044509	-0.043636	0.000065
H88	H	0.084022	-0.083444	0.000058
H89	H	0.007448	-0.054030	-0.089574
H90	H	0.464982	0.210769	0.000044
N91	N	0.954595	-0.571008	0.000047
H92	H	0.989448	-0.580215	0.089684
H93	H	0.945634	-0.518068	-0.000027
N94	N	0.952367	-0.722373	0.000101
H95	H	0.993178	-0.693655	0.000080
H96	H	0.947469	-0.760142	-0.089532
