data_functionalizedCrystal
_audit_creation_method	'MofGen! by Chris Wilmer'
_symmetry_space_group_name_H-M	'P1'
_symmetry_Int_Tables_number	1
_symmetry_cell_setting	triclinic
loop_
_symmetry_equiv_pos_as_xyz
  x,y,z
_cell_length_a	23.532407
_cell_length_b	23.532357
_cell_length_c	13.101039
_cell_angle_alpha	93.334957
_cell_angle_beta	93.330015
_cell_angle_gamma	97.161519
loop_
_atom_site_label
_atom_site_type_symbol
_atom_site_fract_x
_atom_site_fract_y
_atom_site_fract_z
O1	O	-0.758393	0.065981	-0.085072
O2	O	-0.592529	0.075983	-0.085110
O3	O	-0.680477	-0.011951	-0.085069
O4	O	-0.670446	0.153914	-0.085113
O5	O	-0.674167	-0.005632	0.085358
O6	O	-0.586219	0.082302	0.085317
O7	O	-0.752083	0.072300	0.085355
Zn8	Zn	-0.668149	0.078305	0.112395
Zn9	Zn	-0.676463	0.069978	-0.112150
O10	O	-0.664135	0.160234	0.085314
C11	C	-0.568159	0.078888	0.000099
C12	C	-0.504942	0.078121	0.000086
C13	C	-0.105830	0.125357	0.000106
C14	C	-0.046430	0.124645	0.000111
O15	O	-0.009676	0.168433	0.000135
N16	N	-0.023812	0.072368	0.000122
C17	C	-0.060599	0.020799	0.000140
O18	O	-0.035906	-0.023732	0.000151
C19	C	-0.119997	0.021511	0.000143
C20	C	-0.142611	0.073792	0.000121
C21	C	-0.128444	0.177633	0.000086
C22	C	-0.187841	0.178343	0.000079
C23	C	-0.224622	0.126779	0.000094
C24	C	-0.202008	0.074503	0.000114
C25	C	-0.156782	-0.030057	0.000167
C26	C	-0.216184	-0.029340	0.000171
C27	C	-0.238798	0.022940	0.000149
C28	C	-0.298186	0.023649	0.000122
N29	N	-0.320803	0.075926	0.000111
C30	C	-0.284021	0.127491	0.000097
C31	C	0.064144	0.019308	0.000135
C32	C	0.123541	0.018595	0.000125
C33	C	0.137706	0.122441	0.000098
C34	C	0.078307	0.123153	0.000101
C35	C	0.041526	0.071585	0.000124
C36	C	-0.408758	0.128980	0.000082
C37	C	-0.468160	0.129686	0.000072
C38	C	-0.482320	0.025840	0.000104
C39	C	-0.422923	0.025134	0.000109
C40	C	-0.386143	0.076708	0.000102
O41	O	-0.334973	-0.020116	0.000102
O42	O	-0.308721	0.172015	0.000099
C43	C	-0.677071	-0.030008	0.000148
C44	C	-0.676316	-0.093226	0.000157
C45	C	-0.675021	-0.488684	-0.092799
C46	C	-0.674304	-0.548084	-0.092805
O47	O	-0.676839	-0.581730	-0.171812
N48	N	-0.670509	-0.574350	0.000094
C49	C	-0.667424	-0.541213	0.093004
O50	O	-0.664130	-0.569009	0.172021
C51	C	-0.668137	-0.481814	0.093009
C52	C	-0.671939	-0.455552	0.000105
C53	C	-0.678821	-0.462422	-0.185696
C54	C	-0.679539	-0.403026	-0.185689
C55	C	-0.676457	-0.369893	-0.092786
C56	C	-0.672657	-0.396156	0.000111
C57	C	-0.665049	-0.448677	0.185918
C58	C	-0.665762	-0.389274	0.185915
C59	C	-0.669563	-0.363012	0.093011
C60	C	-0.670292	-0.303628	0.093021
N61	N	-0.674088	-0.277362	0.000122
C62	C	-0.677170	-0.310494	-0.092781
C63	C	-0.665926	-0.665955	0.092987
C64	C	-0.665218	-0.725354	0.092983
C65	C	-0.672096	-0.732221	-0.092826
C66	C	-0.672809	-0.672821	-0.092822
C67	C	-0.669722	-0.639689	0.000088
C68	C	-0.678678	-0.185759	-0.092761
C69	C	-0.679398	-0.126359	-0.092746
C70	C	-0.672517	-0.119497	0.093063
C71	C	-0.671800	-0.178893	0.093049
C72	C	-0.674879	-0.212023	0.000129
O73	O	-0.667757	-0.269946	0.171988
O74	O	-0.680457	-0.282690	-0.171784
C75	C	0.223546	0.069395	0.000135
C76	C	0.160328	0.070160	0.000116
C77	C	-0.667542	0.178291	0.000095
C78	C	-0.668297	0.241509	0.000079
N79	N	-0.662479	0.083987	0.265641
N80	N	-0.682138	0.064292	-0.265396
C81	C	-0.654765	0.091722	0.474680
C82	C	-0.689850	0.056558	0.525572
C83	C	-0.685558	0.060862	0.641888
C84	C	-0.659057	0.087419	0.358353
H85	H	0.059900	0.165724	0.000089
H86	H	-0.663414	-0.638982	0.168650
H87	H	0.167665	0.164428	0.000091
C88	C	0.148411	-0.038915	0.000136
C89	C	0.137664	-0.078370	0.088645
C90	C	0.162532	-0.135882	0.088662
C91	C	0.198146	-0.153939	0.000170
C92	C	0.208895	-0.114483	-0.088346
C93	C	0.184028	-0.056971	-0.088363
H94	H	0.111299	-0.065004	0.154158
H95	H	0.154574	-0.165090	0.154188
H96	H	0.216555	-0.196513	0.000183
H97	H	0.235261	-0.127849	-0.153859
H98	H	0.191985	-0.027764	-0.153889
C99	C	-0.212714	0.235852	0.000082
C100	C	-0.254873	0.247356	-0.088407
C101	C	-0.279742	0.304868	-0.088393
C102	C	-0.262452	0.350875	0.000110
C103	C	-0.220291	0.339372	0.088605
C104	C	-0.195422	0.281861	0.088591
H105	H	-0.267674	0.213298	-0.153928
H106	H	-0.310953	0.313383	-0.153904
H107	H	-0.280862	0.393448	0.000120
H108	H	-0.207490	0.373430	0.154126
H109	H	-0.164211	0.273346	0.154102
H110	H	-0.675904	-0.651443	-0.168473
C111	C	-0.087990	0.234360	0.000064
C112	C	-0.041933	0.251446	0.088550
C113	C	-0.001483	0.308177	0.088518
C114	C	-0.007090	0.347821	-0.000001
C115	C	-0.053149	0.330735	-0.088493
C116	C	-0.093599	0.274004	-0.088461
H117	H	-0.037781	0.222099	0.154083
H118	H	0.032613	0.320825	0.154027
H119	H	0.022854	0.389817	-0.000024
H120	H	-0.057301	0.360083	-0.154026
H121	H	-0.127694	0.261356	-0.153970
H122	H	-0.674604	-0.759208	-0.168473
H123	H	-0.246129	-0.071334	0.000190
H124	H	-0.723111	0.023220	0.481785
C125	C	-0.683710	-0.374143	-0.287889
C126	C	-0.735903	-0.391901	-0.364533
C127	C	-0.740070	-0.363024	-0.466740
C128	C	-0.692042	-0.316388	-0.492302
C129	C	-0.639845	-0.298627	-0.415656
C130	C	-0.635679	-0.327505	-0.313450
H131	H	-0.771460	-0.426426	-0.345612
H132	H	-0.778710	-0.376172	-0.523478
H133	H	-0.695126	-0.295011	-0.567962
H134	H	-0.604289	-0.264102	-0.434578
H135	H	-0.597038	-0.314357	-0.256711
H136	H	-0.621507	0.125059	0.518461
H137	H	-0.486569	0.172261	0.000053
C138	C	-0.660881	-0.477547	0.288127
C139	C	-0.608688	-0.459785	0.364771
C140	C	-0.604527	-0.488649	0.466991
C141	C	-0.652559	-0.535276	0.492568
C142	C	-0.704756	-0.553041	0.415923
C143	C	-0.708917	-0.524177	0.313702
H144	H	-0.573128	-0.425266	0.345839
H145	H	-0.565887	-0.475498	0.523729
H146	H	-0.649479	-0.556644	0.568238
H147	H	-0.740316	-0.587560	0.434855
H148	H	-0.747557	-0.537328	0.256965
H149	H	-0.404511	-0.017438	0.000112
C150	C	0.023686	-0.037423	0.000143
C151	C	-0.015825	-0.047943	0.088644
C152	C	-0.056278	-0.104673	0.088652
C153	C	-0.057220	-0.150883	0.000160
C154	C	-0.017707	-0.140365	-0.088347
C155	C	0.022746	-0.083635	-0.088356
H156	H	-0.015129	-0.013735	0.154157
H157	H	-0.085528	-0.112460	0.154172
H158	H	-0.087166	-0.192878	0.000167
H159	H	-0.018403	-0.174573	-0.153860
H160	H	0.051996	-0.075848	-0.153875
C161	C	-0.522788	-0.030878	0.000123
C162	C	-0.562300	-0.041376	0.088629
C163	C	-0.602770	-0.098094	0.088657
C164	C	-0.603727	-0.144315	0.000178
C165	C	-0.564214	-0.133819	-0.088335
C166	C	-0.523744	-0.077100	-0.088363
H167	H	-0.561592	-0.007159	0.154133
H168	H	-0.632020	-0.105864	0.154180
H169	H	-0.633686	-0.186301	0.000198
H170	H	-0.564921	-0.168035	-0.153839
H171	H	-0.494494	-0.069331	-0.153886
H172	H	-0.138381	-0.072629	0.000186
C173	C	-0.683577	-0.097471	-0.194947
C174	C	-0.735774	-0.115229	-0.271583
C175	C	-0.739951	-0.086344	-0.373780
C176	C	-0.691930	-0.039701	-0.399342
C177	C	-0.639729	-0.021941	-0.322705
C178	C	-0.635552	-0.050826	-0.220507
H179	H	-0.771325	-0.149759	-0.252662
H180	H	-0.778594	-0.099491	-0.430512
H181	H	-0.695022	-0.018318	-0.474995
H182	H	-0.604178	0.012590	-0.341626
H183	H	-0.596909	-0.037678	-0.163775
H184	H	-0.670010	-0.092510	0.168702
H185	H	-0.681183	-0.212727	-0.168425
C186	C	-0.661044	-0.754237	0.195182
C187	C	-0.610146	-0.787373	0.220733
C188	C	-0.605969	-0.816252	0.322937
C189	C	-0.652691	-0.811995	0.399590
C190	C	-0.703593	-0.778858	0.374040
C191	C	-0.707770	-0.749979	0.271836
H192	H	-0.575556	-0.790525	0.163989
H193	H	-0.568288	-0.840782	0.341850
H194	H	-0.649599	-0.833373	0.475247
H195	H	-0.738183	-0.775705	0.430785
H196	H	-0.745451	-0.725449	0.252923
C197	C	-0.667604	-0.207793	0.195232
C198	C	-0.615390	-0.190034	0.271832
C199	C	-0.611179	-0.218932	0.374011
C200	C	-0.659181	-0.265590	0.399591
C201	C	-0.711398	-0.283352	0.322989
C202	C	-0.715609	-0.254454	0.220809
H203	H	-0.579853	-0.155492	0.252898
H204	H	-0.572524	-0.205783	0.430717
H205	H	-0.656063	-0.286982	0.475231
H206	H	-0.746935	-0.317893	0.341923
H207	H	-0.754264	-0.267603	0.164104
H208	H	-0.663239	-0.362299	0.261575
H209	H	-0.681330	-0.489392	-0.261353
H210	H	-0.378818	0.170977	0.000080
