data_functionalizedCrystal
_audit_creation_method	'MofGen! by Chris Wilmer'
_symmetry_space_group_name_H-M	'P1'
_symmetry_Int_Tables_number	1
_symmetry_cell_setting	triclinic
loop_
_symmetry_equiv_pos_as_xyz
  x,y,z
_cell_length_a	14.971486
_cell_length_b	10.654545
_cell_length_c	9.130313
_cell_angle_alpha	89.996934
_cell_angle_beta	89.995272
_cell_angle_gamma	84.048604
loop_
_atom_site_label
_atom_site_type_symbol
_atom_site_fract_x
_atom_site_fract_y
_atom_site_fract_z
O1	O	0.125612	1.666495	-0.121786
O2	O	0.137585	1.300888	-0.121792
O3	O	0.001452	1.493491	-0.121778
O4	O	0.261745	1.473892	-0.121799
O5	O	0.001448	1.493477	0.121821
O6	O	0.137581	1.300874	0.121807
O7	O	0.125608	1.666482	0.121813
Cu8	Cu	0.131594	1.483677	0.144053
Cu9	Cu	0.131599	1.483693	-0.144031
O10	O	0.261741	1.473879	0.121800
C11	C	0.136705	1.254092	0.000007
C12	C	0.134077	1.114677	0.000005
C13	C	0.132838	1.049179	0.132791
C14	C	0.130354	0.918186	0.132792
C15	C	0.130353	0.918201	-0.132793
C16	C	0.132830	1.049192	-0.132792
C17	C	-0.031880	1.492608	0.000021
C18	C	-0.131191	1.489981	0.000020
C19	C	-0.187802	1.603130	0.000022
C20	C	-0.281115	1.600655	0.000008
C21	C	-0.317815	1.485029	0.000000
C22	C	-0.261197	1.371871	-0.000007
C23	C	-0.167886	1.374348	-0.000003
C24	C	-0.455687	1.366717	-0.000012
C25	C	-0.549005	1.364240	-0.000014
C26	C	-0.568916	1.593024	-0.000002
C27	C	-0.475605	1.595500	0.000002
C28	C	-0.418994	1.482342	-0.000002
C29	C	0.295073	1.474762	-0.000003
C30	C	0.394384	1.477389	-0.000011
C31	C	0.126488	1.713277	0.000011
C32	C	0.129116	1.852693	0.000004
N33	N	0.131590	1.483675	0.346675
N34	N	0.131596	1.483704	-0.346654
C35	C	0.071336	1.568988	0.423333
C36	C	0.071336	1.569001	0.576670
C37	C	0.191853	1.398382	0.576678
C38	C	0.191848	1.398365	0.423343
H39	H	0.129345	0.864863	0.240920
H40	H	0.022271	1.638469	0.639081
H41	H	0.240915	1.328926	0.639116
H42	H	0.133854	1.102492	0.240923
O43	O	0.250470	1.315440	0.349095
C44	C	0.303645	1.240133	0.449641
H45	H	0.305006	1.291629	0.558932
H46	H	0.374949	1.221068	0.405317
H47	H	0.273983	1.146809	0.465976
O48	O	0.129308	0.854497	-0.261745
C49	C	0.205195	0.764593	-0.269678
H50	H	0.259988	0.794205	-0.194329
H51	H	0.231127	0.758372	-0.387126
H52	H	0.185837	0.668506	-0.233998
O53	O	-0.584619	1.251894	-0.000299
C54	C	-0.555741	1.182920	-0.126459
H55	H	-0.535904	1.250546	-0.214621
H56	H	-0.612594	1.129427	-0.168824
H57	H	-0.495377	1.113013	-0.097950
O58	O	0.012725	1.651649	0.348728
C59	C	-0.042917	1.584263	0.260137
H60	H	-0.007909	1.486072	0.237144
H61	H	-0.056784	1.636645	0.152319
H62	H	-0.109052	1.575581	0.319308
O63	O	0.134071	1.112624	-0.261920
C64	C	0.132425	1.026743	-0.379130
H65	H	0.158928	0.928204	-0.340213
H66	H	0.176488	1.056689	-0.472006
H67	H	0.060529	1.025890	-0.419950
O68	O	-0.336201	1.710482	0.000204
C69	C	-0.390771	1.715898	0.126375
H70	H	-0.396104	1.616207	0.168432
H71	H	-0.460600	1.762567	0.097990
H72	H	-0.359736	1.773300	0.214726
H73	H	-0.157929	1.697286	0.000037
H74	H	-0.445727	1.689653	0.000019
H75	H	-0.409596	1.274571	-0.000020
O76	O	-0.624033	1.702832	-0.000079
C77	C	-0.714261	1.675858	-0.000061
H78	H	-0.718444	1.577214	-0.046182
H79	H	-0.756075	1.747976	-0.070791
H80	H	-0.741227	1.680573	0.116801
H81	H	-0.291085	1.277726	-0.000022
H82	H	-0.121793	1.282210	-0.000005
