data_functionalizedCrystal
_audit_creation_method	'MofGen! by Chris Wilmer'
_symmetry_space_group_name_H-M	'P1'
_symmetry_Int_Tables_number	1
_symmetry_cell_setting	triclinic
loop_
_symmetry_equiv_pos_as_xyz
  x,y,z
_cell_length_a	16.956995
_cell_length_b	16.992695
_cell_length_c	15.455313
_cell_angle_alpha	92.847427
_cell_angle_beta	87.515363
_cell_angle_gamma	83.361347
loop_
_atom_site_label
_atom_site_type_symbol
_atom_site_fract_x
_atom_site_fract_y
_atom_site_fract_z
O1	O	1.063365	0.028719	-0.072191
O2	O	1.563365	0.528719	0.427809
O3	O	0.832954	0.056133	-0.072180
O4	O	1.332954	0.556133	0.427820
O5	O	0.947236	-0.071656	-0.072179
O6	O	1.447236	0.428344	0.427821
O7	O	0.949084	0.156509	-0.072192
O8	O	1.449084	0.656509	0.427808
O9	O	0.940699	-0.064377	0.072083
O10	O	1.440699	0.435623	0.572083
O11	O	0.826417	0.063413	0.072082
O12	O	1.326417	0.563413	0.572082
O13	O	1.056828	0.035999	0.072071
O14	O	1.556828	0.535999	0.572071
Cu15	Cu	0.941026	0.050370	0.085249
Cu16	Cu	1.441026	0.550370	0.585249
Cu17	Cu	0.948757	0.041762	-0.085358
Cu18	Cu	1.448757	0.541762	0.414642
O19	O	0.942547	0.163788	0.072070
O20	O	1.442547	0.663788	0.572070
C21	C	0.800067	0.061177	-0.000048
C22	C	1.300067	0.561177	0.499952
C23	C	0.711813	0.065350	-0.000043
C24	C	1.211813	0.565350	0.499957
C25	C	0.214503	0.096566	-0.000077
C26	C	0.714503	0.596566	0.499923
C27	C	0.297428	0.092639	-0.000076
C28	C	0.797428	0.592639	0.499924
C29	C	0.343818	0.018927	-0.000065
C30	C	0.843818	0.518927	0.499935
C31	C	0.307280	-0.050863	-0.000064
C32	C	0.807280	0.449137	0.499936
C33	C	0.224357	-0.046935	-0.000071
C34	C	0.724357	0.453065	0.499929
C35	C	0.592351	-0.000513	-0.000049
C36	C	1.092351	0.499487	0.499951
C37	C	0.675280	-0.004435	-0.000039
C38	C	1.175280	0.495565	0.499961
C39	C	0.665422	0.139068	-0.000053
C40	C	1.165422	0.639068	0.499947
C41	C	0.582497	0.142989	-0.000055
C42	C	1.082497	0.642989	0.499945
C43	C	0.545967	0.073199	-0.000058
C44	C	1.045967	0.573199	0.499942
N45	N	0.428581	0.014912	-0.000062
N46	N	0.928581	0.514912	0.499938
N47	N	0.461206	0.077215	-0.000068
N48	N	0.961206	0.577215	0.499932
C49	C	0.941591	-0.097075	-0.000048
C50	C	1.441591	0.402925	0.499952
C51	C	0.934500	-0.183660	-0.000047
C52	C	1.434500	0.316340	0.499953
C53	C	1.002915	-0.238334	-0.000050
C54	C	1.502915	0.261666	0.499950
C55	C	0.996248	-0.319689	-0.000058
C56	C	1.496248	0.180311	0.499942
C57	C	0.921166	-0.346367	-0.000057
C58	C	1.421166	0.153633	0.499943
C59	C	0.852746	-0.291686	-0.000057
C60	C	1.352746	0.208314	0.499943
C61	C	0.859413	-0.210333	-0.000056
C62	C	1.359413	0.289667	0.499944
C63	C	0.893531	-0.588175	-0.000068
C64	C	1.393531	-0.088175	0.499932
C65	C	0.886868	-0.669534	-0.000067
C66	C	1.386868	-0.169534	0.499933
C67	C	1.030371	-0.697532	-0.000069
C68	C	1.530371	-0.197532	0.499931
C69	C	1.037032	-0.616176	-0.000062
C70	C	1.537032	-0.116176	0.499938
C71	C	0.968612	-0.561502	-0.000067
C72	C	1.468612	-0.061502	0.499933
N73	N	0.914349	-0.429525	-0.000062
N74	N	1.414349	0.070475	0.499938
N75	N	0.975430	-0.478346	-0.000068
N76	N	1.475430	0.021654	0.499932
C77	C	1.089715	0.030955	-0.000063
C78	C	1.589715	0.530955	0.499937
C79	C	1.177970	0.026782	-0.000073
C80	C	1.677970	0.526782	0.499927
C81	C	0.948192	0.189207	-0.000063
C82	C	1.448192	0.689207	0.499937
C83	C	0.955283	0.275791	-0.000069
C84	C	1.455283	0.775791	0.499931
N85	N	0.935594	0.056424	0.205244
N86	N	1.435594	0.556424	0.705244
N87	N	0.954194	0.035701	-0.205353
N88	N	1.454194	0.535701	0.294647
C89	C	0.984164	0.002152	0.250639
C90	C	1.484164	0.502152	0.750639
C91	C	0.980064	0.006738	0.341447
C92	C	1.480064	0.506738	0.841447
C93	C	0.927398	0.065599	0.386858
C94	C	1.427398	0.565599	0.886858
C95	C	0.878823	0.119873	0.341457
C96	C	1.378823	0.619873	0.841457
C97	C	0.882919	0.115284	0.250651
C98	C	1.382919	0.615284	0.750651
C99	C	0.909715	0.085386	0.658440
C100	C	1.409715	0.585386	1.158440
C101	C	0.905624	0.089973	0.749252
C102	C	1.405624	0.589973	1.249252
C103	C	1.006865	-0.023164	0.749235
C104	C	1.506865	0.476836	1.249235
C105	C	1.010960	-0.027745	0.658427
C106	C	1.510960	0.472255	1.158427
C107	C	0.962382	0.026527	0.613034
C108	C	1.462382	0.526527	1.113034
N109	N	0.923208	0.070288	0.479678
N110	N	1.423208	0.570288	0.979678
N111	N	0.966569	0.021833	0.520216
N112	N	1.466569	0.521833	1.020216
H113	H	0.695174	0.195887	-0.000052
H114	H	1.195174	0.695887	0.499948
H115	H	0.835937	0.167797	0.378436
H116	H	1.335937	0.667797	0.878436
H117	H	1.053845	-0.075675	0.621455
H118	H	1.553845	0.424325	1.121455
H119	H	1.064055	-0.216620	-0.000045
H120	H	1.564055	0.283380	0.499955
F121	F	0.820711	-0.529997	-0.000075
F122	F	1.320711	-0.029997	0.499925
H123	H	1.019613	-0.037455	0.378407
H124	H	1.519613	0.462545	0.878407
F125	F	0.806951	-0.697924	-0.000062
F126	F	1.306951	-0.197924	0.499938
F127	F	0.356655	-0.129314	-0.000055
F128	F	0.856655	0.370686	0.499945
F129	F	1.058560	-0.080922	0.797551
F130	F	1.558560	0.419078	1.297551
F131	F	1.103183	-0.755724	-0.000065
F132	F	1.603183	-0.255724	0.499935
F133	F	0.786597	-0.152144	-0.000056
F134	F	1.286597	0.347856	0.499944
F135	F	0.185477	-0.121210	-0.000067
F136	F	0.685477	0.378790	0.499933
F137	F	0.533131	0.221444	-0.000072
F138	F	1.033131	0.721444	0.499928
F139	F	0.724651	-0.082893	-0.000028
F140	F	1.224651	0.417107	0.499972
H141	H	1.098172	-0.594461	-0.000062
H142	H	1.598172	-0.094461	0.499938
F143	F	0.849567	0.152626	0.797577
F144	F	1.349567	0.652626	1.297577
F145	F	1.040224	-0.060493	0.202317
F146	F	1.540224	0.439507	0.702317
H147	H	0.791612	-0.313414	-0.000062
H148	H	1.291612	0.186586	0.499938
H149	H	0.176737	0.156591	-0.000080
H150	H	0.676737	0.656591	0.499920
F151	F	0.336305	0.166914	-0.000085
F152	F	0.836305	0.666914	0.499915
F153	F	0.553484	-0.074791	-0.000069
F154	F	1.053484	0.425209	0.499931
F155	F	0.858017	0.143148	0.610136
F156	F	1.358017	0.643148	1.110136
H157	H	0.843367	0.159477	0.213691
H158	H	1.343367	0.659477	0.713691
H159	H	1.051959	-0.364203	-0.000058
H160	H	1.551959	0.135797	0.499942
