data_functionalizedCrystal
_audit_creation_method	'MofGen! by Chris Wilmer'
_symmetry_space_group_name_H-M	'P1'
_symmetry_Int_Tables_number	1
_symmetry_cell_setting	triclinic
loop_
_symmetry_equiv_pos_as_xyz
  x,y,z
_cell_length_a	12.759400
_cell_length_b	19.805407
_cell_length_c	19.805399
_cell_angle_alpha	90.026078
_cell_angle_beta	89.976763
_cell_angle_gamma	89.986699
loop_
_atom_site_label
_atom_site_type_symbol
_atom_site_fract_x
_atom_site_fract_y
_atom_site_fract_z
Zn1	Zn	-0.418329	-1.034791	-0.382858
Zn2	Zn	-0.594023	-1.034729	-0.269678
Zn3	Zn	-0.418354	-0.921606	-0.269669
Zn4	Zn	-0.593963	-0.921592	-0.382812
O5	O	-0.506167	-0.978179	-0.326254
O6	O	-0.441650	-1.129499	-0.367867
O7	O	-0.570755	-1.019702	-0.174960
O8	O	-0.271330	-0.936651	-0.284700
O9	O	-0.570731	-1.129454	-0.284714
O10	O	-0.271312	-1.019808	-0.367858
O11	O	-0.441692	-0.936591	-0.174954
O12	O	-0.441634	-0.826887	-0.284655
O13	O	-0.570629	-0.936629	-0.477534
O14	O	-0.570653	-0.826877	-0.367780
O15	O	-0.441592	-1.019795	-0.477568
O16	O	-0.741036	-1.019690	-0.284670
O17	O	-0.740992	-0.936568	-0.367789
C18	C	-0.506140	-0.802323	-0.326212
C19	C	-0.506154	-0.727091	-0.326210
C20	C	-0.573461	-0.265313	-0.369490
C21	C	-0.573461	-0.336001	-0.369478
C22	C	-0.506182	-0.371330	-0.326261
C23	C	-0.438907	-0.335966	-0.283048
C24	C	-0.438914	-0.265279	-0.283057
C25	C	-0.438880	-0.621039	-0.283010
C26	C	-0.438876	-0.691731	-0.283006
C27	C	-0.573427	-0.691762	-0.369430
C28	C	-0.573434	-0.621075	-0.369439
C29	C	-0.506163	-0.585717	-0.326225
C30	C	-0.506166	-0.509069	-0.326237
C31	C	-0.506173	-0.447977	-0.326251
C32	C	-0.779135	-0.978139	-0.326240
C33	C	-0.895911	-0.978184	-0.326257
C34	C	-0.950761	-1.021513	-0.283024
C35	C	-1.060485	-1.021555	-0.283045
C36	C	-1.060499	-0.934932	-0.369532
C37	C	-0.950777	-0.934894	-0.369514
C38	C	-0.895895	-1.064803	-0.239767
C39	C	-0.950745	-1.108135	-0.196530
C40	C	-1.060469	-1.108176	-0.196551
C41	C	-1.115343	-1.064886	-0.239808
C42	C	-0.232134	-0.978238	-0.326283
C43	C	-0.115357	-0.978263	-0.326295
C44	C	-0.506101	-0.978217	-0.502797
C45	C	-0.506073	-0.978234	-0.578029
C46	C	-0.506190	-0.154722	-0.326288
C47	C	-0.506189	-0.229954	-0.326282
C48	C	-0.438880	-1.021539	-0.613392
C49	C	-0.438849	-1.021546	-0.684080
C50	C	-0.506018	-0.978250	-0.719405
C51	C	-0.573214	-0.934940	-0.684037
C52	C	-0.573238	-0.934930	-0.613350
C53	C	-0.573116	-0.934978	-0.969110
C54	C	-0.573089	-0.934993	-1.039802
C55	C	-0.438727	-1.021594	-1.039841
C56	C	-0.438751	-1.021584	-0.969154
C57	C	-0.505943	-0.978272	-0.933792
C58	C	-0.505974	-0.978264	-0.857144
C59	C	-0.505993	-0.978261	-0.796052
C60	C	-0.506157	-0.978181	-0.150398
C61	C	-0.505890	-0.978295	-0.075167
H62	H	-0.628205	-0.720559	-0.404616
O63	O	-0.897284	-1.150123	-0.154536
C64	C	-0.728245	-1.188480	-0.116202
C65	C	-0.788656	-1.140882	-0.163784
H66	H	-0.640409	-1.181036	-0.123672
H67	H	-0.749815	-1.176633	-0.061602
H68	H	-0.749800	-1.243051	-0.128141
H69	H	-0.767133	-1.086295	-0.151906
H70	H	-0.767081	-1.152788	-0.218370
H71	H	-0.384085	-0.720493	-0.247812
O72	O	-1.113754	-0.892951	-0.411643
C73	C	-1.147207	-0.860011	-0.526744
C74	C	-1.086852	-0.907609	-0.479133
H75	H	-1.125462	-0.871836	-0.581320
H76	H	-1.235063	-0.867483	-0.519388
H77	H	-1.125723	-0.805438	-0.514763
H78	H	-1.108248	-0.962201	-0.491085
H79	H	-0.999011	-0.900079	-0.486498
O80	O	-0.638231	-0.892839	-0.934729
C81	C	-0.652362	-0.801471	-0.854856
C82	C	-0.578499	-0.849142	-0.893771
H83	H	-0.604099	-0.766139	-0.821721
H84	H	-0.700354	-0.770477	-0.892209
H85	H	-0.707330	-0.832543	-0.821792
H86	H	-0.523467	-0.818121	-0.926836
H87	H	-0.530581	-0.880138	-0.856381
H88	H	-0.628243	-0.364788	-0.404660
H89	H	-0.384132	-0.364736	-0.247857
O90	O	-0.373558	-1.063761	-1.074162
C91	C	-0.322529	-1.178907	-1.095800
C92	C	-0.396409	-1.131232	-1.056903
H93	H	-0.340963	-1.233467	-1.081849
H94	H	-0.334046	-1.171536	-1.152398
H95	H	-0.237824	-1.167004	-1.081912
H96	H	-0.481143	-1.143106	-1.070735
H97	H	-0.384802	-1.138612	-1.000315
O98	O	-0.373587	-1.063610	-0.934736
C99	C	-0.313993	-1.101920	-0.825856
C100	C	-0.387876	-1.054312	-0.864748
H101	H	-0.325504	-1.094409	-0.769265
H102	H	-0.332424	-1.156516	-0.839710
H103	H	-0.229289	-1.090047	-0.839809
H104	H	-0.472604	-1.066124	-0.850817
H105	H	-0.369355	-0.999730	-0.850891
H106	H	-0.628215	-0.592314	-0.404633
H107	H	-1.204688	-1.064928	-0.239827
O108	O	-0.373515	-0.230853	-0.241180
C109	C	-0.231624	-0.151082	-0.232235
C110	C	-0.305633	-0.190014	-0.279742
H111	H	-0.176708	-0.118065	-0.263394
H112	H	-0.279740	-0.117919	-0.196807
H113	H	-0.183583	-0.188484	-0.201329
H114	H	-0.353690	-0.152660	-0.310692
H115	H	-0.257457	-0.223187	-0.315125
H116	H	-0.627900	-0.899685	-0.712804
H117	H	-0.384108	-0.592259	-0.247819
H118	H	-0.806552	-1.064772	-0.239743
O119	O	-1.113590	-1.150290	-0.154493
C120	C	-1.101989	-1.236230	-0.068734
C121	C	-1.041703	-1.188561	-0.116324
H122	H	-1.043895	-1.267194	-0.037872
H123	H	-1.153406	-1.205225	-0.033275
H124	H	-1.153310	-1.271595	-0.099864
H125	H	-0.990326	-1.153186	-0.085248
H126	H	-0.990353	-1.219607	-0.151784
O127	O	-0.897437	-0.892903	-0.411580
C128	C	-0.773415	-0.883714	-0.502900
C129	C	-0.833778	-0.931343	-0.455311
H130	H	-0.721915	-0.914773	-0.538259
H131	H	-0.831421	-0.852786	-0.533868
H132	H	-0.722163	-0.848312	-0.471764
H133	H	-0.885031	-0.966785	-0.486394
H134	H	-0.775715	-0.962223	-0.424340
H135	H	-0.627787	-0.899733	-1.068562
H136	H	-0.384187	-1.056798	-0.584636
H137	H	-0.628242	-0.236554	-0.404685
H138	H	-0.384137	-1.056812	-0.712869
H139	H	-0.627943	-0.899659	-0.584558
