data_functionalizedCrystal
_audit_creation_method	'MofGen! by Chris Wilmer'
_symmetry_space_group_name_H-M	'P1'
_symmetry_Int_Tables_number	1
_symmetry_cell_setting	triclinic
loop_
_symmetry_equiv_pos_as_xyz
  x,y,z
_cell_length_a	10.489716
_cell_length_b	9.565339
_cell_length_c	16.992695
_cell_angle_alpha	90.000049
_cell_angle_beta	87.598679
_cell_angle_gamma	90.003220
loop_
_atom_site_label
_atom_site_type_symbol
_atom_site_fract_x
_atom_site_fract_y
_atom_site_fract_z
O1	O	1.703692	0.116250	0.110591
O2	O	1.333398	0.116256	0.121000
O3	O	1.517061	0.116242	0.001645
O4	O	1.520030	0.116264	0.229946
O5	O	1.517046	-0.116278	0.001652
O6	O	1.333384	-0.116264	0.121008
O7	O	1.703678	-0.116270	0.110598
Zn8	Zn	1.518528	-0.153185	0.115804
Zn9	Zn	1.518548	0.153171	0.115794
O10	O	1.520015	-0.116256	0.229954
C11	C	1.285791	-0.000004	0.120222
C12	C	1.143956	-0.000002	0.117882
C13	C	1.052650	0.000009	0.191075
C14	C	0.971932	-0.114646	0.152402
C15	C	0.971951	0.114601	0.152377
C16	C	1.065106	-0.114751	0.079240
C17	C	1.065132	0.114599	0.079226
C18	C	0.984458	-0.000084	0.040499
N19	N	1.518524	-0.362264	0.115810
C20	C	1.433557	-0.453461	0.170990
C21	C	1.550436	-0.546640	0.186858
C22	C	1.401696	-0.546640	0.099948
C23	C	1.635465	-0.453391	0.131714
C24	C	1.486646	-0.453384	0.044773
C25	C	1.603605	-0.546520	0.060612
C26	C	1.751285	-0.000007	0.111376
C27	C	1.893120	0.000000	0.113716
N28	N	1.518561	0.362250	0.115782
C29	C	1.513234	-0.000018	-0.027586
C30	C	1.501839	-0.000017	-0.114694
C31	C	1.611789	-0.000020	-0.164319
C32	C	1.601074	-0.000007	-0.246166
C33	C	1.480408	-0.000000	-0.278385
C34	C	1.370450	0.000007	-0.228753
C35	C	1.381166	0.000003	-0.146908
C36	C	1.435995	0.000020	-0.522231
C37	C	1.425287	0.000019	-0.604082
C38	C	1.655912	0.000008	-0.621489
C39	C	1.666618	-0.000004	-0.539642
C40	C	1.556659	0.000010	-0.490017
N41	N	1.469453	0.000009	-0.362045
N42	N	1.567616	0.000011	-0.406359
C43	C	1.523842	0.000007	0.259184
C44	C	1.535237	0.000016	0.346292
H45	H	1.105730	-0.211778	0.048363
C46	C	1.244184	-0.317740	0.197940
C47	C	1.336658	-0.398282	0.234037
H48	H	1.184365	-0.283681	0.236864
H49	H	1.284175	-0.241160	0.171257
H50	H	1.201283	-0.373766	0.161227
H51	H	1.379565	-0.342253	0.270745
H52	H	1.296663	-0.474872	0.260733
C53	C	1.777663	0.119547	-0.723623
C54	C	1.776774	0.000011	-0.676037
H55	H	1.852287	0.119555	-0.757294
H56	H	1.704277	0.119536	-0.754522
H57	H	1.777050	0.200619	-0.691321
H58	H	1.777378	-0.081061	-0.708339
H59	H	1.850180	0.000009	-0.645135
C60	C	1.857960	-0.446328	0.092478
C61	C	1.768881	-0.398294	0.149922
H62	H	1.940314	-0.412289	0.103723
H63	H	1.858828	-0.545621	0.092563
H64	H	1.835159	-0.413626	0.042190
H65	H	1.791677	-0.431005	0.200209
H66	H	1.768017	-0.298980	0.149845
C67	C	1.295192	0.000013	-0.013714
C68	C	1.260307	0.000007	-0.092355
H69	H	1.220574	0.000029	0.019963
H70	H	1.344308	-0.081071	-0.003881
H71	H	1.344337	0.081100	-0.003888
H72	H	1.211170	-0.081086	-0.102183
H73	H	1.211170	0.081099	-0.102192
C74	C	1.537918	-0.447053	-0.094223
C75	C	1.450170	-0.398027	-0.036281
H76	H	1.515382	-0.412880	-0.144262
H77	H	1.620982	-0.415177	-0.083033
H78	H	1.536883	-0.546354	-0.094677
H79	H	1.451212	-0.298725	-0.035824
H80	H	1.367085	-0.429895	-0.047474
C81	C	0.991372	-0.120316	-0.083640
C82	C	0.943977	-0.000178	-0.045507
H83	H	0.966369	-0.120380	-0.136734
H84	H	1.081830	-0.121070	-0.082596
H85	H	0.958038	-0.200974	-0.057457
H86	H	0.977319	0.080480	-0.071687
H87	H	0.853500	0.000589	-0.046556
C88	C	1.811659	0.119515	-0.153956
C89	C	1.744428	-0.000020	-0.128905
H90	H	1.893543	0.119522	-0.132089
H91	H	1.821011	0.119506	-0.209795
H92	H	1.766023	0.200588	-0.136960
H93	H	1.790059	-0.081093	-0.145906
H94	H	1.735081	-0.000023	-0.073054
C95	C	1.234073	-0.552837	0.008025
C96	C	1.268304	-0.601936	0.081842
H97	H	1.151725	-0.586980	-0.003150
H98	H	1.232914	-0.453549	0.008389
H99	H	1.294356	-0.584706	-0.031229
H100	H	1.208026	-0.570058	0.121096
H101	H	1.269453	-0.701245	0.081484
C102	C	1.497752	-0.554991	0.325649
C103	C	1.586869	-0.601953	0.267936
H104	H	1.520236	-0.589144	0.375702
H105	H	1.497247	-0.455703	0.326386
H106	H	1.415334	-0.588299	0.314003
H107	H	1.669286	-0.568636	0.279578
H108	H	1.587386	-0.701262	0.267200
C109	C	0.951050	0.245237	0.272878
C110	C	0.916919	0.245460	0.194093
H111	H	0.917089	0.326028	0.298631
H112	H	0.917824	0.163849	0.298345
H113	H	1.041388	0.245707	0.275086
H114	H	0.826580	0.244979	0.191884
H115	H	0.950139	0.326869	0.168618
H116	H	1.327021	0.000001	-0.630312
H117	H	1.675558	-0.587124	0.013934
H118	H	1.082858	-0.000092	0.254741
C119	C	1.200806	0.204851	-0.026179
C120	C	1.120258	0.245443	0.037547
H121	H	1.234832	0.285640	-0.051907
H122	H	1.268534	0.149599	-0.007635
H123	H	1.153670	0.151804	-0.062221
H124	H	1.167397	0.298483	0.073592
H125	H	1.052520	0.300719	0.019003
C126	C	1.722841	0.119535	-0.348292
C127	C	1.721940	-0.000005	-0.300710
H128	H	1.797469	0.119541	-0.381960
H129	H	1.649459	0.119533	-0.379195
H130	H	1.722228	0.200604	-0.315988
H131	H	1.722544	-0.081075	-0.333014
H132	H	1.795342	-0.000016	-0.269804
C133	C	1.893505	-0.000013	-0.565073
C134	C	1.799258	-0.000013	-0.504229
H135	H	1.975391	-0.000018	-0.543208
H136	H	1.884519	-0.081088	-0.596634
H137	H	1.884534	0.081082	-0.596631
H138	H	1.808224	-0.081115	-0.472674
H139	H	1.808249	0.081070	-0.472655
C140	C	1.206959	-0.000002	-0.513258
C141	C	1.315129	0.000009	-0.467691
H142	H	1.132340	-0.000021	-0.479583
H143	H	1.207578	0.081081	-0.545538
H144	H	1.207593	-0.081089	-0.545548
H145	H	1.314501	0.081102	-0.435405
H146	H	1.314510	-0.081083	-0.435397
C147	C	1.224622	0.119540	-0.310701
C148	C	1.237812	0.000014	-0.264170
H149	H	1.142738	0.119533	-0.332568
H150	H	1.233593	0.200610	-0.279133
H151	H	1.288580	0.119522	-0.351967
H152	H	1.173860	0.000037	-0.222900
H153	H	1.228829	-0.081077	-0.295739
C154	C	0.950941	-0.245270	0.272904
C155	C	0.916839	-0.245486	0.194113
H156	H	0.916924	-0.326038	0.298658
H157	H	1.041265	-0.245782	0.275127
H158	H	0.917740	-0.163852	0.298365
H159	H	0.950048	-0.326899	0.168650
H160	H	0.826496	-0.244987	0.191886
