data_functionalizedCrystal
_audit_creation_method	'MofGen! by Chris Wilmer'
_symmetry_space_group_name_H-M	'P1'
_symmetry_Int_Tables_number	1
_symmetry_cell_setting	triclinic
loop_
_symmetry_equiv_pos_as_xyz
  x,y,z
_cell_length_a	19.188930
_cell_length_b	8.559649
_cell_length_c	7.681481
_cell_angle_alpha	85.090457
_cell_angle_beta	84.272277
_cell_angle_gamma	103.538278
loop_
_atom_site_label
_atom_site_type_symbol
_atom_site_fract_x
_atom_site_fract_y
_atom_site_fract_z
O1	O	-0.016266	-2.105121	-0.146551
O2	O	0.019805	-1.639667	-0.146535
O3	O	-0.100590	-1.885830	-0.146509
O4	O	0.104129	-1.858958	-0.146577
O5	O	-0.115439	-1.916128	0.146352
O6	O	0.004956	-1.669966	0.146326
O7	O	-0.031114	-2.135420	0.146310
Zn8	Zn	-0.015436	-1.907503	0.192816
Zn9	Zn	0.004127	-1.867583	-0.193041
O10	O	0.089281	-1.889257	0.146284
C11	C	0.015114	-1.595268	-0.000102
C12	C	0.023251	-1.417831	-0.000094
C13	C	-0.133980	-1.900110	-0.000073
C14	C	-0.211349	-1.897500	-0.000058
C15	C	-0.263825	-2.041939	-0.000054
C16	C	-0.336519	-2.039482	-0.000083
C17	C	-0.356735	-1.892582	-0.000079
C18	C	-0.304247	-1.748123	-0.000092
C19	C	-0.231554	-1.750582	-0.000082
N20	N	-0.463922	-1.790606	0.099591
N21	N	-0.532979	-1.788281	0.099585
C22	C	-0.575754	-1.885165	-0.000114
N23	N	-0.546868	-1.984490	-0.099785
N24	N	-0.477806	-1.986821	-0.099771
C25	C	-0.435557	-1.889900	-0.000091
C26	C	-0.707055	-2.026951	-0.000144
C27	C	-0.779749	-2.024487	-0.000183
C28	C	-0.747476	-1.733126	-0.000175
C29	C	-0.674783	-1.735592	-0.000153
C30	C	-0.654578	-1.882509	-0.000130
C31	C	0.122671	-1.874977	-0.000155
C32	C	0.200040	-1.877586	-0.000182
N33	N	-0.028789	-1.934759	0.456153
C34	C	-0.026424	-1.179821	-0.000111
C35	C	-0.034562	-1.357260	-0.000083
N36	N	0.017474	-1.840340	-0.456378
H37	H	0.078973	-1.333942	-0.000125
O38	O	-0.387418	-2.179952	0.000004
C39	C	-0.353993	-2.310144	-0.000024
H40	H	-0.300258	-2.274929	0.055420
H41	H	-0.390600	-2.420105	0.085008
H42	H	-0.344093	-2.340677	-0.140520
H43	H	-0.690602	-2.146579	-0.000132
O44	O	-0.085066	-2.049969	0.545790
C45	C	-0.080010	-2.203552	0.500789
H46	H	-0.021593	-2.198901	0.449978
H47	H	-0.098476	-2.296280	0.622092
H48	H	-0.115870	-2.239666	0.393911
H49	H	-0.090287	-1.441157	-0.000070
H50	H	-0.247379	-2.161570	-0.000041
H51	H	-0.320712	-1.628516	-0.000093
H52	H	-0.188826	-1.632959	-0.000084
O53	O	0.073780	-1.725149	0.454105
C54	C	0.068701	-1.571557	0.499029
H55	H	0.035042	-1.585614	0.632941
H56	H	0.125128	-1.493254	0.505147
H57	H	0.041828	-1.511605	0.395329
O58	O	-0.767179	-1.590499	-0.000411
C59	C	-0.800541	-1.564649	-0.152120
H60	H	-0.822874	-1.685531	-0.202689
H61	H	-0.846562	-1.504789	-0.118023
H62	H	-0.759168	-1.482726	-0.258323
H63	H	-0.632055	-1.617975	-0.000146
H64	H	-0.822476	-2.142111	-0.000190
