data_functionalizedCrystal
_audit_creation_method	'MofGen! by Chris Wilmer'
_symmetry_space_group_name_H-M	'P1'
_symmetry_Int_Tables_number	1
_symmetry_cell_setting	triclinic
loop_
_symmetry_equiv_pos_as_xyz
  x,y,z
_cell_length_a	6.817900
_cell_length_b	14.125469
_cell_length_c	16.305550
_cell_angle_alpha	95.884114
_cell_angle_beta	103.455250
_cell_angle_gamma	100.398878
loop_
_atom_site_label
_atom_site_type_symbol
_atom_site_fract_x
_atom_site_fract_y
_atom_site_fract_z
V1	V	-4.010572	-0.133925	-0.262704
O2	O	-4.014497	0.005600	-0.258038
O3	O	-3.946712	-0.264747	-0.260584
O4	O	-3.962176	-0.132231	-0.377425
O5	O	-3.998925	-0.127833	-0.140389
V6	V	-4.496202	-0.117193	-0.248113
O7	O	-4.267207	-0.170628	-0.294709
O8	O	-4.689764	-0.080489	-0.216107
O9	O	-4.336856	0.013629	-0.250232
O10	O	-4.609674	-0.256718	-0.252778
O11	O	-4.625245	-0.123285	-0.370428
O12	O	-4.321392	-0.118886	-0.133392
C13	C	-3.787951	-0.296627	-0.256357
C14	C	-3.817025	-0.403578	-0.255389
C15	C	-3.870323	-0.599398	-0.253629
C16	C	-4.055817	-0.651731	-0.257190
C17	C	-4.085475	-0.760692	-0.256211
C18	C	-3.840658	-0.490427	-0.254608
C19	C	-3.807677	-0.127589	-0.405397
C20	C	-3.849289	-0.127070	-0.499180
C21	C	-4.000611	-0.125059	-0.839931
C22	C	-3.765262	-0.119090	-0.799017
C23	C	-3.721959	-0.120028	-0.701520
C24	C	-3.925537	-0.126056	-0.670880
C25	C	-4.081450	-0.221074	-0.721274
C26	C	-4.123376	-0.220536	-0.818825
C27	C	-4.065699	-0.036771	-0.794304
C28	C	-4.017858	-0.036019	-0.696463
C29	C	-3.883121	-0.126623	-0.575341
C30	C	-4.043036	-0.124499	-0.935471
C31	C	-4.158957	0.045504	-0.254457
C32	C	-4.109122	0.152455	-0.255431
C33	C	-4.139232	-0.123532	-0.105415
C34	C	-4.076859	-0.124046	-0.011631
H35	H	-3.603457	-0.051711	-0.666663
C36	C	-4.284437	-0.231751	-0.696013
C37	C	-4.321426	-0.318606	-0.662372
C38	C	-4.508405	-0.328479	-0.639099
H39	H	-4.277258	-0.178284	-0.654245
H40	H	-4.393378	-0.233016	-0.744823
H41	H	-4.212513	-0.317333	-0.613567
H42	H	-4.328645	-0.372089	-0.704125
H43	H	-4.617346	-0.329744	-0.687909
H44	H	-4.501208	-0.275008	-0.597334
H45	H	-4.533536	-0.387414	-0.616278
C46	C	-4.237714	-0.602282	-0.262051
C47	C	-4.196139	-0.531698	-0.189913
C48	C	-4.363654	-0.486130	-0.194352
H49	H	-4.259245	-0.572127	-0.311923
H50	H	-4.358023	-0.649411	-0.264109
H51	H	-4.075866	-0.484576	-0.187864
H52	H	-4.174632	-0.561827	-0.140031
H53	H	-4.483962	-0.533259	-0.196410
H54	H	-4.385171	-0.455981	-0.244226
H55	H	-4.335476	-0.438240	-0.145404
C56	C	-3.688508	-0.648933	-0.248535
C57	C	-3.754527	-0.748719	-0.248529
C58	C	-3.587098	-0.794391	-0.243823
H59	H	-3.633872	-0.639554	-0.296337
H60	H	-3.584790	-0.621614	-0.197531
H61	H	-3.858208	-0.776030	-0.299528
H62	H	-3.809143	-0.758127	-0.200731
H63	H	-3.483381	-0.767071	-0.192818
H64	H	-3.532474	-0.785004	-0.291625
H65	H	-3.631865	-0.862098	-0.243810
H66	H	-3.905037	0.034261	-0.662257
H67	H	-3.667157	-0.050450	-0.811548
H68	H	-3.712748	-0.182521	-0.830374
C69	C	-4.064529	-0.309680	-0.858958
C70	C	-3.991649	-0.363519	-0.795317
C71	C	-3.937385	-0.445637	-0.832248
H72	H	-4.182089	-0.348907	-0.899341
H73	H	-3.959558	-0.289632	-0.886787
H74	H	-4.096611	-0.383568	-0.767502
H75	H	-3.874072	-0.324321	-0.754929
H76	H	-3.832414	-0.425589	-0.860077
H77	H	-4.054955	-0.484855	-0.872631
H78	H	-3.887913	-0.482172	-0.789073
C79	C	-3.954687	0.059209	-0.812242
C80	C	-3.741326	0.068339	-0.782208
C81	C	-3.638978	0.156743	-0.798709
H82	H	-3.988664	0.060635	-0.871938
H83	H	-3.995994	0.111564	-0.784096
H84	H	-3.700034	0.015997	-0.810357
H85	H	-3.707288	0.066930	-0.722514
H86	H	-3.680285	0.209098	-0.770563
H87	H	-3.672971	0.158161	-0.858405
H88	H	-3.494203	0.162953	-0.778327
H89	H	-3.648023	-0.184191	-0.685069
C90	C	-4.353846	-0.231794	-0.856274
C91	C	-4.427610	-0.316108	-0.916931
C92	C	-4.639896	-0.326514	-0.951456
H93	H	-4.422969	-0.236738	-0.812096
H94	H	-4.378687	-0.176717	-0.882742
H95	H	-4.402788	-0.371172	-0.890464
H96	H	-4.358546	-0.311185	-0.961125
H97	H	-4.664736	-0.271436	-0.977924
H98	H	-4.708999	-0.331454	-0.907272
H99	H	-4.689968	-0.383716	-0.992621
H100	H	-4.018192	-0.287928	-0.704298
H101	H	-4.165284	-0.034837	-0.675118
H102	H	-4.237352	-0.040300	-0.821111
