data_functionalizedCrystal
_audit_creation_method	'MofGen! by Chris Wilmer'
_symmetry_space_group_name_H-M	'P1'
_symmetry_Int_Tables_number	1
_symmetry_cell_setting	triclinic
loop_
_symmetry_equiv_pos_as_xyz
  x,y,z
_cell_length_a	14.519709
_cell_length_b	9.565339
_cell_length_c	10.489741
_cell_angle_alpha	89.999484
_cell_angle_beta	84.109659
_cell_angle_gamma	89.997945
loop_
_atom_site_label
_atom_site_type_symbol
_atom_site_fract_x
_atom_site_fract_y
_atom_site_fract_z
O1	O	1.224778	0.116077	0.167192
O2	O	1.724778	0.616077	0.667192
O3	O	0.956408	0.116120	0.186882
O4	O	1.456408	0.616120	0.686882
O5	O	1.096700	0.116089	-0.008624
O6	O	1.596700	0.616089	0.491376
O7	O	1.084487	0.116108	0.362699
O8	O	1.584487	0.616108	0.862699
O9	O	1.096689	-0.116431	-0.008612
O10	O	1.596689	0.383569	0.491388
O11	O	0.956397	-0.116400	0.186895
O12	O	1.456397	0.383600	0.686895
O13	O	1.224767	-0.116443	0.167204
O14	O	1.724767	0.383557	0.667204
Zn15	Zn	1.090580	-0.153339	0.177051
Zn16	Zn	1.590580	0.346661	0.677051
Zn17	Zn	1.090595	0.153016	0.177035
Zn18	Zn	1.590595	0.653016	0.677035
O19	O	1.084475	-0.116413	0.362711
O20	O	1.584475	0.383587	0.862711
C21	C	0.922038	-0.000135	0.185971
C22	C	1.422038	0.499865	0.685971
C23	C	0.819642	-0.000119	0.183221
C24	C	1.319642	0.499881	0.683221
C25	C	0.444691	-0.000183	0.173098
C26	C	0.944691	0.499817	0.673098
C27	C	0.549014	-0.000165	0.175909
C28	C	1.049014	0.499835	0.675909
C29	C	0.632163	-0.000150	0.178159
C30	C	1.132163	0.499850	0.678159
C31	C	0.736493	-0.000134	0.180971
C32	C	1.236493	0.499866	0.680971
N33	N	1.090577	-0.362419	0.177062
N34	N	1.590577	0.137581	0.677062
C35	C	1.025677	-0.453608	0.267447
C36	C	1.525677	0.046392	0.767447
C37	C	1.109180	-0.546799	0.292387
C38	C	1.609180	-0.046799	0.792387
C39	C	1.007110	-0.546783	0.152131
C40	C	1.507110	-0.046783	0.652131
C41	C	1.174122	-0.453558	0.202059
C42	C	1.674122	0.046442	0.702059
C43	C	1.071998	-0.453534	0.061753
C44	C	1.571998	0.046466	0.561753
C45	C	1.155560	-0.546683	0.086645
C46	C	1.655560	-0.046683	0.586645
C47	C	1.259137	-0.000185	0.168116
C48	C	1.759137	0.499815	0.668116
C49	C	1.361533	-0.000192	0.170866
C50	C	1.861533	0.499808	0.670866
C51	C	1.095772	-0.000170	-0.056140
C52	C	1.595772	0.499830	0.443860
C53	C	1.093012	-0.000167	-0.197741
C54	C	1.593012	0.499833	0.302259
N55	N	1.090605	0.362095	0.177015
N56	N	1.590605	0.862095	0.677015
C57	C	1.003749	-0.000143	-0.264951
C58	C	1.503749	0.499857	0.235049
C59	C	1.045910	-0.114794	-0.357507
C60	C	1.545910	0.385206	0.142493
C61	C	1.045942	0.114453	-0.357493
C62	C	1.545942	0.614453	0.142507
C63	C	1.135210	-0.114913	-0.288432
C64	C	1.635210	0.385087	0.211568
C65	C	1.135230	0.114437	-0.288409
C66	C	1.635230	0.614437	0.211591
C67	C	1.177457	-0.000242	-0.380938
C68	C	1.677457	0.499758	0.119062
C69	C	1.085403	-0.000150	0.410227
C70	C	1.585403	0.499850	0.910227
C71	C	1.088163	-0.000144	0.551828
C72	C	1.588163	0.499856	1.051828
H73	H	0.970844	-0.412741	0.343953
H74	H	1.470844	0.087259	0.843953
H75	H	1.250914	-0.000318	-0.431128
H76	H	1.750914	0.499682	0.068872
H77	H	1.008136	-0.211711	-0.388119
H78	H	1.508136	0.288289	0.111881
C79	C	1.229804	-0.601571	-0.016638
C80	C	1.729804	-0.101571	0.483362
N81	N	1.285727	-0.642921	-0.094422
N82	N	1.785727	-0.142921	0.405578
H83	H	1.244736	-0.412780	0.223242
H84	H	1.744736	0.087220	0.723242
H85	H	0.936512	-0.587737	0.131066
H86	H	1.436512	-0.087737	0.631066
H87	H	1.172972	0.211359	-0.257763
H88	H	1.672972	0.711359	0.242237
H89	H	1.056238	-0.412536	-0.035709
H90	H	1.556238	0.087464	0.464291
C91	C	0.904603	-0.000285	-0.196830
C92	C	1.404603	0.499715	0.303170
N93	N	0.829930	-0.000401	-0.145517
N94	N	1.329930	0.499599	0.354483
H95	H	1.172942	-0.211951	-0.257988
H96	H	1.672942	0.288049	0.242012
C97	C	1.130430	-0.602157	0.424093
C98	C	1.630430	-0.102157	0.924093
N99	N	1.146428	-0.643853	0.523296
N100	N	1.646428	-0.143853	1.023296
C101	C	0.994905	0.245399	-0.398817
C102	C	1.494905	0.745399	0.101183
N103	N	0.956458	0.344024	-0.429936
N104	N	1.456458	0.844024	0.070064
