data_functionalizedCrystal
_audit_creation_method	'MofGen! by Chris Wilmer'
_symmetry_space_group_name_H-M	'P1'
_symmetry_Int_Tables_number	1
_symmetry_cell_setting	triclinic
loop_
_symmetry_equiv_pos_as_xyz
  x,y,z
_cell_length_a	10.723023
_cell_length_b	10.723023
_cell_length_c	18.366186
_cell_angle_alpha	89.994813
_cell_angle_beta	89.991110
_cell_angle_gamma	84.467548
loop_
_atom_site_label
_atom_site_type_symbol
_atom_site_fract_x
_atom_site_fract_y
_atom_site_fract_z
O1	O	1.657197	0.175024	-0.060546
O2	O	1.294044	0.191779	-0.060548
O3	O	1.483998	0.001825	-0.060544
O4	O	1.467243	0.364978	-0.060550
O5	O	1.483965	0.001816	0.060556
O6	O	1.294011	0.191769	0.060552
O7	O	1.657164	0.175015	0.060553
Zn8	Zn	1.475582	0.183390	0.079780
Zn9	Zn	1.475626	0.183403	-0.079774
O10	O	1.467211	0.364968	0.060550
C11	C	1.247528	0.190555	0.000002
C12	C	1.108974	0.186908	0.000001
C13	C	1.482762	-0.044679	0.000005
C14	C	1.479115	-0.183233	0.000003
C15	C	1.047219	0.185287	-0.062732
C16	C	0.904016	0.181517	-0.062734
C17	C	1.477506	-0.244994	-0.062731
C18	C	1.473736	-0.388197	-0.062735
C19	C	1.703680	0.176239	0.000002
C20	C	1.842234	0.179886	-0.000002
C21	C	1.468446	0.411473	-0.000001
C22	C	1.472093	0.550027	-0.000003
N23	N	1.475562	0.183381	0.188671
N24	N	1.475656	0.183403	-0.188665
C25	C	1.559702	0.099312	0.226773
C26	C	1.559710	0.099306	0.303001
C27	C	1.475590	0.183391	0.341124
C28	C	1.391435	0.267467	0.303012
C29	C	1.391421	0.267462	0.226786
C30	C	1.460213	0.296904	0.461882
C31	C	1.460236	0.296911	0.538107
C32	C	1.475626	0.183408	0.576231
C33	C	1.491020	0.069892	0.538121
C34	C	1.491006	0.069887	0.461895
C35	C	1.475595	0.183406	0.423778
C36	C	1.559778	0.099325	0.696988
C37	C	1.559778	0.099318	0.773217
C38	C	1.391508	0.267490	0.773227
C39	C	1.391503	0.267486	0.697000
C40	C	1.475645	0.183405	0.658885
H41	H	1.100365	0.186696	-0.116439
O42	O	1.473939	-0.379642	0.071149
H43	H	1.388375	-0.394177	0.102826
H44	H	1.477694	-0.236374	0.053709
O45	O	0.833694	0.179644	-0.133886
H46	H	0.848232	0.265197	-0.165570
H47	H	0.895335	0.181274	0.053709
H48	H	1.055826	0.185512	0.053708
H49	H	1.628288	0.030857	0.665954
O50	O	1.650434	0.008613	0.185661
H51	H	1.708934	-0.049857	0.224968
O52	O	1.479374	-0.174620	-0.133878
H53	H	1.482047	-0.073187	-0.122710
O54	O	1.443658	0.419338	0.579211
H55	H	1.432937	0.498263	0.539896
H56	H	1.447659	0.389339	0.430848
H57	H	1.472358	-0.441311	-0.116444
H58	H	1.628228	0.030844	0.334029
H59	H	1.628290	0.030852	0.804241
O60	O	1.507586	-0.052536	0.420787
H61	H	1.518280	-0.131468	0.460097
H62	H	1.503551	-0.022534	0.569160
H63	H	1.322941	0.335929	0.334056
O64	O	1.300777	0.358190	0.814333
H65	H	1.314926	0.344077	0.873740
O66	O	1.300767	0.358176	0.655896
H67	H	1.242280	0.416655	0.695209
O68	O	1.300677	0.358149	0.185682
H69	H	1.242186	0.416626	0.224995
