data_functionalizedCrystal
_audit_creation_method	'MofGen! by Chris Wilmer'
_symmetry_space_group_name_H-M	'P1'
_symmetry_Int_Tables_number	1
_symmetry_cell_setting	triclinic
loop_
_symmetry_equiv_pos_as_xyz
  x,y,z
_cell_length_a	19.188930
_cell_length_b	12.837943
_cell_length_c	11.892095
_cell_angle_alpha	94.310562
_cell_angle_beta	93.870839
_cell_angle_gamma	91.013139
loop_
_atom_site_label
_atom_site_type_symbol
_atom_site_fract_x
_atom_site_fract_y
_atom_site_fract_z
O1	O	0.177430	-1.381278	-0.094009
O2	O	0.168466	-1.079513	-0.094014
O3	O	0.071891	-1.239102	-0.093990
O4	O	0.274006	-1.221689	-0.094034
O5	O	0.079929	-1.225796	0.094016
O6	O	0.176505	-1.066207	0.093991
O7	O	0.185469	-1.367972	0.093996
Zn8	Zn	0.182263	-1.214977	0.123844
Zn9	Zn	0.171672	-1.232508	-0.123862
O10	O	0.282044	-1.208383	0.093971
C11	C	0.169458	-1.034253	-0.000012
C12	C	0.160427	-0.919217	-0.000013
C13	C	0.049861	-1.231885	0.000016
C14	C	-0.027760	-1.230191	0.000026
N15	N	0.189491	-1.203020	0.292896
C16	C	-0.066260	-1.323833	0.000033
C17	C	-0.139194	-1.322244	0.000015
C18	C	-0.173623	-1.227006	0.000012
C19	C	-0.135114	-1.133352	-0.000001
C20	C	-0.062182	-1.134944	0.000006
N21	N	-0.283886	-1.149679	0.063993
N22	N	-0.353168	-1.148172	0.063989
C23	C	-0.393362	-1.222201	-0.000010
N24	N	-0.361657	-1.297809	-0.063992
N25	N	-0.292369	-1.299318	-0.063982
C26	C	-0.252705	-1.225268	0.000004
C27	C	-0.510946	-1.314126	-0.000025
C28	C	-0.583882	-1.312534	-0.000050
C29	C	-0.579799	-1.123638	-0.000054
C30	C	-0.506866	-1.125234	-0.000041
C31	C	-0.472444	-1.220481	-0.000020
C32	C	0.304074	-1.215600	-0.000037
C33	C	0.381694	-1.217294	-0.000054
C34	C	0.184477	-1.413232	-0.000009
C35	C	0.193508	-1.528268	-0.000015
C36	C	0.268994	-0.677767	-0.000021
C37	C	0.260512	-0.569680	-0.000021
C38	C	0.134982	-0.594952	-0.000005
C39	C	0.143464	-0.703040	-0.000005
C40	C	0.210472	-0.744443	-0.000015
C41	C	0.218953	-0.852533	-0.000023
C42	C	0.093423	-0.877803	0.000001
C43	C	0.084941	-0.769716	0.000001
N44	N	0.164439	-1.244474	-0.292914
C45	C	0.114101	-1.327677	0.529563
C46	C	0.119160	-1.319327	0.647904
C47	C	0.204661	-1.177964	0.647920
C48	C	0.199603	-1.186314	0.529579
C49	C	0.154323	-1.261175	0.470405
C50	C	0.149269	-1.269529	0.352062
C51	C	0.234767	-1.128162	0.352080
C52	C	0.239825	-1.119812	0.470421
H53	H	-0.038239	-1.401391	0.000046
H54	H	0.045770	-0.932104	-0.000002
N55	N	0.100424	-1.350247	0.288222
H56	H	0.128059	-1.399479	0.239100
H57	H	0.075714	-1.391032	0.343721
H58	H	0.077237	-1.388638	0.481383
H59	H	-0.615228	-1.388792	-0.000050
N60	N	-0.180732	-1.423247	0.000020
H61	H	-0.147859	-1.483826	0.000032
H62	H	-0.208108	-1.421757	0.069715
H63	H	-0.163150	-1.055808	-0.000005
H64	H	0.267520	-1.074014	0.303900
H65	H	0.241523	-1.117008	0.696115
H66	H	0.086407	-1.373479	0.696067
H67	H	-0.030834	-1.058687	0.000001
H68	H	-0.482919	-1.391682	-0.000013
H69	H	0.276689	-1.058859	0.518614
H70	H	0.273515	-0.886241	-0.000028
H71	H	-0.607831	-1.046093	-0.000062
N72	N	0.323623	-0.497747	-0.000030
H73	H	0.325871	-0.447411	0.069666
H74	H	0.367328	-0.540441	-0.000076
N75	N	-0.465334	-1.024233	-0.000042
H76	H	-0.498209	-0.963657	-0.000045
H77	H	-0.432014	-1.015848	0.069657
H78	H	0.030385	-0.735989	0.000021
N79	N	0.341261	-0.722434	-0.000049
H80	H	0.377049	-0.663793	-0.000060
H81	H	0.350497	-0.761799	0.069645
H82	H	0.080430	-0.561216	0.000095
