data_functionalizedCrystal
_audit_creation_method	'MofGen! by Chris Wilmer'
_symmetry_space_group_name_H-M	'P1'
_symmetry_Int_Tables_number	1
_symmetry_cell_setting	triclinic
loop_
_symmetry_equiv_pos_as_xyz
  x,y,z
_cell_length_a	10.967926
_cell_length_b	12.837942
_cell_length_c	10.065875
_cell_angle_alpha	99.723749
_cell_angle_beta	93.120479
_cell_angle_gamma	89.656601
loop_
_atom_site_label
_atom_site_type_symbol
_atom_site_fract_x
_atom_site_fract_y
_atom_site_fract_z
O1	O	1.633692	0.181573	0.270742
O2	O	2.133692	0.681573	0.770742
O3	O	1.283989	0.184546	0.188491
O4	O	1.783989	0.684546	0.688491
O5	O	1.451085	0.031857	0.227801
O6	O	1.951085	0.531857	0.727801
O7	O	1.466596	0.334261	0.231432
O8	O	1.966596	0.834261	0.731432
O9	O	1.419236	0.061095	0.447297
O10	O	1.919236	0.561095	0.947297
O11	O	1.252140	0.213784	0.407987
O12	O	1.752140	0.713784	0.907987
O13	O	1.601843	0.210810	0.490238
O14	O	2.101843	0.710810	0.990238
Zn15	Zn	1.421935	0.216939	0.483962
Zn16	Zn	1.921935	0.716939	0.983962
Zn17	Zn	1.463897	0.178417	0.194767
Zn18	Zn	1.963897	0.678417	0.694767
O19	O	1.434747	0.363499	0.450928
O20	O	1.934747	0.863499	0.950928
C21	C	1.222993	0.196739	0.287638
C22	C	1.722993	0.696739	0.787638
C23	C	1.088693	0.189499	0.256051
C24	C	1.588693	0.689499	0.756051
C25	C	1.012319	0.201418	0.355674
C26	C	1.512319	0.701418	0.855674
C27	C	0.873513	0.193935	0.323029
C28	C	1.373513	0.693935	0.823029
C29	C	1.429922	0.007653	0.336316
C30	C	1.929922	0.507653	0.836316
C31	C	1.414297	-0.108029	0.332638
C32	C	1.914297	0.391971	0.832638
C33	C	1.602145	-0.341725	0.376792
C34	C	2.102145	0.158275	0.876792
C35	C	1.587470	-0.450418	0.373338
C36	C	2.087470	0.049582	0.873338
C37	C	1.370273	-0.434113	0.322267
C38	C	1.870273	0.065887	0.822267
C39	C	1.384948	-0.325420	0.325721
C40	C	1.884948	0.174580	0.825721
C41	C	1.500888	-0.279229	0.352987
C42	C	2.000888	0.220771	0.852987
C43	C	1.515561	-0.170532	0.356450
C44	C	2.015561	0.329468	0.856450
C45	C	1.298366	-0.154230	0.305370
C46	C	1.798366	0.345770	0.805370
C47	C	1.283691	-0.262924	0.301916
C48	C	1.783691	0.237076	0.801916
C49	C	1.662840	0.198617	0.391088
C50	C	2.162840	0.698617	0.891088
C51	C	1.797141	0.205855	0.422666
C52	C	2.297141	0.705855	0.922666
C53	C	1.455911	0.387703	0.342410
C54	C	1.955911	0.887703	0.842410
C55	C	1.471537	0.503383	0.346079
C56	C	1.971537	1.003383	0.846079
N57	N	1.393305	0.243229	0.681333
N58	N	1.893305	0.743229	1.181333
N59	N	1.492535	0.152119	-0.002602
N60	N	1.992535	0.652119	0.497398
C61	C	1.453928	0.187557	0.763373
C62	C	1.953928	0.687557	1.263373
C63	C	1.431904	0.207799	0.915359
C64	C	1.931904	0.707799	1.415359
H65	H	0.836144	0.178188	0.213564
H66	H	1.336144	0.678188	0.713564
O67	O	1.582884	0.069123	0.941409
O68	O	2.082884	0.569123	1.441409
H69	H	1.623932	0.031416	1.024625
H70	H	2.123932	0.531416	1.524625
O71	O	1.696686	-0.517820	0.399024
O72	O	2.196686	-0.017820	0.899024
H73	H	1.667009	-0.601164	0.392034
H74	H	2.167009	-0.101164	0.892034
O75	O	0.846620	0.226716	0.567673
O76	O	1.346620	0.726716	1.067673
H77	H	0.947878	0.229330	0.570562
H78	H	1.447878	0.729330	1.070562
O79	O	1.039205	0.168649	0.111053
O80	O	1.539205	0.668649	0.611053
H81	H	0.937947	0.166053	0.108167
H82	H	1.437947	0.666053	0.608167
H83	H	1.189297	-0.300548	0.279712
H84	H	1.689297	0.199452	0.779712
H85	H	1.215914	-0.103333	0.285996
H86	H	1.715914	0.396667	0.785996
H87	H	1.325094	0.305874	0.723612
H88	H	1.825094	0.805874	1.223612
O89	O	1.061811	0.222282	0.500670
O90	O	1.561811	0.722282	1.000670
H91	H	1.121135	0.155633	0.520465
H92	H	1.621135	0.655633	1.020465
O93	O	1.640605	-0.120706	0.385839
O94	O	2.140605	0.379294	0.885839
H95	H	1.708551	-0.182432	0.401793
H96	H	2.208551	0.317568	0.901793
O97	O	1.544241	0.104537	0.707378
O98	O	2.044241	0.604537	1.207378
H99	H	1.547352	0.101655	0.596786
H100	H	2.047352	0.601655	1.096786
H101	H	1.363689	0.270448	0.957632
H102	H	1.863689	0.770448	1.457632
H103	H	1.275882	-0.471743	0.300055
H104	H	1.775882	0.028257	0.800055
O105	O	1.727185	-0.291893	0.406196
O106	O	2.227185	0.208107	0.906196
H107	H	1.795134	-0.353613	0.422164
H108	H	2.295134	0.146387	0.922164
