data_functionalizedCrystal
_audit_creation_method	'MofGen! by Chris Wilmer'
_symmetry_space_group_name_H-M	'P1'
_symmetry_Int_Tables_number	1
_symmetry_cell_setting	triclinic
loop_
_symmetry_equiv_pos_as_xyz
  x,y,z
_cell_length_a	21.395364
_cell_length_b	19.120786
_cell_length_c	21.395355
_cell_angle_alpha	92.459295
_cell_angle_beta	90.024516
_cell_angle_gamma	92.460890
loop_
_atom_site_label
_atom_site_type_symbol
_atom_site_fract_x
_atom_site_fract_y
_atom_site_fract_z
Zn1	Zn	0.947234	-0.279788	0.343608
Zn2	Zn	0.942676	-0.397226	0.234359
Zn3	Zn	0.842449	-0.279779	0.238845
Zn4	Zn	0.837959	-0.397200	0.339100
O5	O	0.892579	-0.338498	0.288978
O6	O	1.034306	-0.295381	0.329125
O7	O	0.929353	-0.381654	0.147275
O8	O	0.860135	-0.181491	0.256506
O9	O	1.030958	-0.381663	0.248860
O10	O	0.937120	-0.181498	0.333475
O11	O	0.855716	-0.295367	0.150571
O12	O	0.754176	-0.295341	0.252135
O13	O	0.852483	-0.381617	0.427376
O14	O	0.750877	-0.381609	0.325792
O15	O	0.932766	-0.295355	0.430688
O16	O	0.924999	-0.495512	0.244489
O17	O	0.848063	-0.495492	0.321442
C18	C	0.729793	-0.338471	0.288961
C19	C	0.660151	-0.338477	0.288968
C20	C	0.160093	-0.293678	0.330842
C21	C	0.225529	-0.293672	0.330842
C22	C	0.256511	-0.338520	0.288991
C23	C	0.222052	-0.383389	0.247148
C24	C	0.156618	-0.383398	0.247153
C25	C	0.359941	-0.343959	0.232317
C26	C	0.425375	-0.343945	0.232310
C27	C	0.458333	-0.338496	0.288975
C28	C	0.425850	-0.333047	0.345647
C29	C	0.360416	-0.333056	0.345653
C30	C	0.327464	-0.338515	0.288981
C31	C	0.563737	-0.293628	0.330818
C32	C	0.629173	-0.293628	0.330819
C33	C	0.625696	-0.383341	0.247120
C34	C	0.560260	-0.383345	0.247124
C35	C	0.529285	-0.338485	0.288973
C36	C	0.885566	-0.520988	0.282003
C37	C	0.882623	-0.599057	0.279040
C38	C	0.921293	-0.635677	0.317754
C39	C	0.918525	-0.709032	0.314971
C40	C	0.877091	-0.745765	0.273471
C41	C	0.838417	-0.709140	0.234755
C42	C	0.841182	-0.635787	0.237541
C43	C	0.866736	-0.967248	0.263054
C44	C	0.863975	-1.040607	0.260269
C45	C	0.944083	-1.040494	0.340486
C46	C	0.946846	-0.967139	0.343267
C47	C	0.908171	-0.930520	0.304553
C48	C	0.874262	-0.820746	0.270624
C49	C	0.910996	-0.855541	0.307404
C50	C	1.056002	-0.338526	0.288995
C51	C	1.125642	-0.338538	0.289002
C52	C	0.892632	-0.338484	0.452402
C53	C	0.892654	-0.338478	0.522043
C54	C	0.899637	-0.155296	0.295993
C55	C	0.902644	-0.077227	0.298983
C56	C	0.892565	-0.338462	0.126192
C57	C	0.892672	-0.338270	0.056558
C58	C	0.934456	-0.293560	0.556482
C59	C	0.934457	-0.293529	0.621918
C60	C	0.892661	-0.338430	0.652913
C61	C	0.850851	-0.383352	0.618467
C62	C	0.850848	-0.383376	0.553032
C63	C	0.885283	-0.401673	0.754171
C64	C	0.885291	-0.401650	0.819605
C65	C	0.892668	-0.338356	0.854737
C66	C	0.900050	-0.275083	0.824427
C67	C	0.900047	-0.275107	0.758992
C68	C	0.892660	-0.338409	0.723867
C69	C	0.934472	-0.293401	0.960130
C70	C	0.934468	-0.293370	1.025567
C71	C	0.850866	-0.383198	1.022114
C72	C	0.850867	-0.383223	0.956678
C73	C	0.892673	-0.338326	0.925689
H74	H	0.650921	-0.419862	0.213049
H75	H	0.980586	-0.937232	0.377060
H76	H	0.955036	-0.605774	0.351546
H77	H	0.835245	-0.937439	0.231531
H78	H	0.816830	-0.419805	0.928637
H79	H	0.944730	-0.825631	0.341196
H80	H	0.906058	-0.223543	0.853031
H81	H	0.451817	-0.348378	0.186164
H82	H	0.532210	-0.419872	0.213051
H83	H	0.840528	-0.850662	0.236832
H84	H	0.879284	-0.453171	0.844278
H85	H	0.968498	-0.256999	0.531255
H86	H	0.968496	-0.256948	0.649964
H87	H	0.906056	-0.223587	0.734317
H88	H	0.975570	-1.070317	0.372005
H89	H	0.452684	-0.328607	0.391789
H90	H	0.134877	-0.257152	0.364921
H91	H	0.968510	-0.256839	0.934898
H92	H	0.253584	-0.257139	0.364912
H93	H	0.879109	-0.453201	0.725572
H94	H	0.968508	-0.256787	1.053607
H95	H	0.816829	-0.419750	1.047350
H96	H	0.816819	-0.419908	0.643707
H97	H	0.950019	-0.738845	0.346492
H98	H	0.816805	-0.419953	0.524992
H99	H	0.333971	-0.328620	0.391797
H100	H	0.830231	-1.070513	0.226474
H101	H	0.247282	-0.419906	0.213074
H102	H	0.538515	-0.257101	0.364894
H103	H	0.809692	-0.605971	0.206017
H104	H	0.333112	-0.348398	0.186171
H105	H	0.128568	-0.419929	0.213081
H106	H	0.804678	-0.739054	0.200967
H107	H	0.657222	-0.257100	0.364894
