data_functionalizedCrystal
_audit_creation_method	'MofGen! by Chris Wilmer'
_symmetry_space_group_name_H-M	'P1'
_symmetry_Int_Tables_number	1
_symmetry_cell_setting	triclinic
loop_
_symmetry_equiv_pos_as_xyz
  x,y,z
_cell_length_a	10.723024
_cell_length_b	10.723022
_cell_length_c	9.798715
_cell_angle_alpha	89.998022
_cell_angle_beta	90.003391
_cell_angle_gamma	95.532452
loop_
_atom_site_label
_atom_site_type_symbol
_atom_site_fract_x
_atom_site_fract_y
_atom_site_fract_z
O1	O	-1.657186	0.175025	-0.113478
O2	O	-1.157186	0.675025	0.386522
O3	O	-1.294034	0.191778	-0.113483
O4	O	-0.794034	0.691778	0.386517
O5	O	-1.483988	0.001825	-0.113475
O6	O	-0.983988	0.501825	0.386525
O7	O	-1.467232	0.364978	-0.113486
O8	O	-0.967232	0.864978	0.386514
O9	O	-1.483974	0.001824	0.113507
O10	O	-0.983974	0.501824	0.613507
O11	O	-1.294020	0.191777	0.113499
O12	O	-0.794020	0.691777	0.613499
O13	O	-1.657172	0.175024	0.113504
O14	O	-1.157172	0.675024	0.613504
Zn15	Zn	-1.475594	0.183401	0.149540
Zn16	Zn	-0.975594	0.683401	0.649540
Zn17	Zn	-1.475612	0.183401	-0.149519
Zn18	Zn	-0.975612	0.683401	0.350481
O19	O	-1.467218	0.364977	0.113496
O20	O	-0.967218	0.864977	0.613496
C21	C	-1.247527	0.190558	0.000008
C22	C	-0.747527	0.690558	0.500008
C23	C	-1.108973	0.186911	0.000006
C24	C	-0.608973	0.686911	0.500006
C25	C	-1.482762	-0.044675	0.000014
C26	C	-0.982762	0.455325	0.500014
C27	C	-1.479115	-0.183229	0.000009
C28	C	-0.979115	0.316771	0.500009
C29	C	-1.703679	0.176243	0.000010
C30	C	-1.203679	0.676243	0.500010
C31	C	-1.842233	0.179891	0.000003
C32	C	-1.342233	0.679891	0.500003
C33	C	-1.033990	0.293199	0.000002
C34	C	-0.533990	0.793199	0.500002
C35	C	-0.890786	0.289431	0.000001
C36	C	-0.390786	0.789431	0.500001
C37	C	-1.581631	-0.401408	0.000004
C38	C	-1.081631	0.098592	0.500004
C39	C	-1.585403	-0.258205	0.000009
C40	C	-1.085403	0.241795	0.500009
N41	N	-1.475590	0.183399	0.353640
N42	N	-0.975590	0.683399	0.853640
C43	C	-1.468444	0.411477	0.000004
C44	C	-0.968444	0.911477	0.500004
C45	C	-1.472091	0.550031	-0.000000
C46	C	-0.972091	1.050031	0.500000
N47	N	-1.475626	0.183393	-0.353619
N48	N	-0.975626	0.683393	0.146381
C49	C	-1.555346	0.103292	0.421420
C50	C	-1.055346	0.603292	0.921420
C51	C	-1.555366	0.103288	0.578582
C52	C	-1.055366	0.603288	1.078582
H53	H	-1.075811	0.386984	0.000007
H54	H	-0.575811	0.886984	0.500007
O55	O	-0.805446	0.409966	0.000011
O56	O	-0.305446	0.909966	0.500011
H57	H	-0.745467	0.413763	-0.092496
H58	H	-0.245467	0.913763	0.407504
H59	H	-1.407317	0.251975	0.411961
H60	H	-0.907317	0.751975	0.911961
O61	O	-1.645747	0.012406	0.344184
O62	O	-1.145747	0.512406	0.844184
H63	H	-1.631531	0.026658	0.232863
H64	H	-1.131531	0.526658	0.732863
H65	H	-1.385323	-0.225033	-0.000001
H66	H	-0.885323	0.274967	0.499999
O67	O	-1.645821	0.012431	0.655775
O68	O	-1.145821	0.512431	1.155775
H69	H	-1.631636	0.026679	0.767102
H70	H	-1.131636	0.526679	1.267102
H71	H	-1.067151	0.093125	-0.000026
H72	H	-0.567151	0.593125	0.499974
O73	O	-0.927564	0.059350	0.000022
O74	O	-0.427564	0.559350	0.500022
H75	H	-0.987555	0.055553	-0.092484
H76	H	-0.487555	0.555553	0.407516
O77	O	-1.702168	-0.486752	0.000011
O78	O	-1.202168	0.013248	0.500011
H79	H	-1.680290	-0.585836	0.000002
H80	H	-1.180290	-0.085836	0.500002
H81	H	-1.679190	-0.216393	-0.000037
H82	H	-1.179190	0.283607	0.499963
O83	O	-1.385169	0.274237	0.569176
O84	O	-0.885169	0.774237	1.069176
H85	H	-1.402152	0.371620	0.596500
H86	H	-0.902152	0.871620	1.096500
O87	O	-1.351553	-0.364626	0.000009
O88	O	-0.851553	0.135374	0.500009
H89	H	-1.347755	-0.304650	-0.092506
H90	H	-0.847755	0.195350	0.407494
