data_functionalizedCrystal
_audit_creation_method	'MofGen! by Chris Wilmer'
_symmetry_space_group_name_H-M	'P1'
_symmetry_Int_Tables_number	1
_symmetry_cell_setting	triclinic
loop_
_symmetry_equiv_pos_as_xyz
  x,y,z
_cell_length_a	10.654545
_cell_length_b	9.730223
_cell_length_c	10.654550
_cell_angle_alpha	90.004929
_cell_angle_beta	84.484005
_cell_angle_gamma	89.999987
loop_
_atom_site_label
_atom_site_type_symbol
_atom_site_fract_x
_atom_site_fract_y
_atom_site_fract_z
O1	O	1.667837	0.114276	0.176373
O2	O	1.302358	0.114282	0.193185
O3	O	1.493500	0.114270	0.002040
O4	O	1.476694	0.114287	0.367519
O5	O	1.493499	-0.114310	0.002031
O6	O	1.302356	-0.114298	0.193177
O7	O	1.667835	-0.114304	0.176365
Zn8	Zn	1.485095	-0.150593	0.184769
Zn9	Zn	1.485098	0.150571	0.184781
O10	O	1.476693	-0.114292	0.367510
C11	C	1.255559	-0.000008	0.191948
C12	C	1.116115	-0.000006	0.188258
C13	C	1.492266	-0.000019	-0.044762
C14	C	1.488574	-0.000017	-0.184206
C15	C	1.050610	-0.124606	0.186516
C16	C	0.919590	-0.124606	0.183029
C17	C	0.919593	0.124605	0.183030
C18	C	1.050611	0.124603	0.186508
C19	C	1.714634	-0.000012	0.177602
C20	C	1.854078	-0.000005	0.181292
N21	N	1.485100	0.356107	0.184779
N22	N	1.485103	-0.356130	0.184761
C23	C	1.569898	0.428028	0.100308
C24	C	1.569903	0.571911	0.100301
C25	C	1.400301	0.571939	0.269241
C26	C	1.400303	0.428059	0.269253
C27	C	1.601115	-0.000018	-0.263693
C28	C	1.597639	-0.000002	-0.394714
C29	C	1.369069	0.000012	-0.366747
C30	C	1.372547	0.000005	-0.235729
C31	C	1.477927	-0.000000	0.414312
C32	C	1.481619	0.000007	0.553755
H33	H	1.103940	-0.226070	0.187941
H34	H	1.695592	-0.000033	-0.221748
O35	O	0.848942	0.259002	0.181161
H36	H	0.746829	0.238073	0.178465
O37	O	1.661358	0.649475	0.009177
H38	H	1.608077	0.715017	-0.052459
O39	O	0.848932	-0.258994	0.181162
H40	H	0.916495	-0.345636	0.182974
H41	H	1.103947	0.226074	0.187923
H42	H	1.331259	0.630537	0.338016
H43	H	1.638947	0.369448	0.031526
O44	O	1.308870	0.350471	0.360398
H45	H	1.249904	0.424673	0.419135
H46	H	1.689282	0.000000	-0.459428
O47	O	1.243928	0.000006	-0.422316
H48	H	1.260414	-0.000009	-0.526776
O49	O	1.251158	-0.000009	-0.149980
H50	H	1.169893	-0.000018	-0.207816
