data_functionalizedCrystal
_audit_creation_method	'MofGen! by Chris Wilmer'
_symmetry_space_group_name_H-M	'P1'
_symmetry_Int_Tables_number	1
_symmetry_cell_setting	triclinic
loop_
_symmetry_equiv_pos_as_xyz
  x,y,z
_cell_length_a	15.711784
_cell_length_b	26.809956
_cell_length_c	27.732048
_cell_angle_alpha	90.000636
_cell_angle_beta	101.115728
_cell_angle_gamma	90.012036
loop_
_atom_site_label
_atom_site_type_symbol
_atom_site_fract_x
_atom_site_fract_y
_atom_site_fract_z
O1	O	1.143410	0.041526	0.264478
O2	O	1.643410	0.541526	0.764478
O3	O	0.892237	0.041519	0.227759
O4	O	1.392237	0.541519	0.727759
O5	O	1.025625	0.041513	0.177133
O6	O	1.525625	0.541513	0.677133
O7	O	1.010023	0.041532	0.315103
O8	O	1.510023	0.541532	0.815103
O9	O	1.025599	-0.041446	0.177140
O10	O	1.525599	0.458554	0.677140
O11	O	0.892212	-0.041440	0.227765
O12	O	1.392212	0.458560	0.727765
O13	O	1.143385	-0.041433	0.264484
O14	O	1.643385	0.458567	0.764484
Zn15	Zn	1.017795	-0.054608	0.246126
Zn16	Zn	1.517795	0.445392	0.746126
Zn17	Zn	1.017828	0.054694	0.246117
Zn18	Zn	1.517828	0.554694	0.746117
O19	O	1.009998	-0.041428	0.315110
O20	O	1.509998	0.458572	0.815110
C21	C	0.860100	0.000038	0.221764
C22	C	1.360100	0.500038	0.721764
C23	C	0.764381	0.000035	0.203885
C24	C	1.264381	0.500035	0.703885
C25	C	0.640332	0.000025	0.136577
C26	C	1.140332	0.500025	0.636577
C27	C	0.730274	0.000028	0.153382
C28	C	1.230274	0.500028	0.653382
C29	C	0.708552	0.000041	0.237603
C30	C	1.208552	0.500041	0.737603
C31	C	0.618607	0.000041	0.220805
C32	C	1.118607	0.500041	0.720805
C33	C	0.584504	0.000032	0.170292
C34	C	1.084504	0.500032	0.670292
C35	C	0.562779	0.000048	0.254520
C36	C	1.062779	0.500048	0.754520
C37	C	0.472842	0.000045	0.237723
C38	C	0.972842	0.500045	0.737723
C39	C	0.438732	0.000035	0.187212
C40	C	0.938732	0.500035	0.687212
C41	C	0.494567	0.000030	0.153495
C42	C	0.994567	0.500030	0.653495
C43	C	0.596883	0.000053	0.305033
C44	C	1.096883	0.500053	0.805033
C45	C	0.541055	0.000060	0.338748
C46	C	1.041055	0.500060	0.838748
C47	C	0.451116	0.000061	0.321951
C48	C	0.951116	0.500061	0.821951
C49	C	0.417007	0.000051	0.271440
C50	C	0.917007	0.500051	0.771440
C51	C	0.395281	0.000067	0.355668
C52	C	0.895281	0.500067	0.855668
C53	C	0.305344	0.000064	0.338872
C54	C	0.805344	0.500064	0.838872
C55	C	0.327069	0.000048	0.254643
C56	C	0.827069	0.500048	0.754643
N57	N	1.017778	-0.129204	0.246133
N58	N	1.517778	0.370796	0.746133
C59	C	1.076884	-0.473833	0.223707
C60	C	1.576884	0.026167	0.723707
C61	C	1.076905	-0.682711	0.223703
C62	C	1.576905	-0.182711	0.723703
O63	O	1.127123	-0.709717	0.204632
O64	O	1.627123	-0.209717	0.704632
N65	N	1.017833	-0.708831	0.246107
N66	N	1.517833	-0.208831	0.746107
C67	C	0.958747	-0.682730	0.268511
C68	C	1.458747	-0.182730	0.768511
O69	O	0.908497	-0.709740	0.287562
O70	O	1.408497	-0.209740	0.787562
C71	C	0.958723	-0.473853	0.268511
C72	C	1.458723	0.026147	0.768511
C73	C	1.017805	-0.447735	0.246110
C74	C	1.517805	0.052265	0.746110
C75	C	1.135960	-0.447715	0.201307
C76	C	1.635960	0.052285	0.701307
C77	C	1.135958	-0.395498	0.201311
C78	C	1.635958	0.104502	0.701311
C79	C	1.076879	-0.369400	0.223714
C80	C	1.576879	0.130600	0.723714
C81	C	1.017803	-0.395519	0.246114
C82	C	1.517803	0.104481	0.746114
C83	C	0.899635	-0.447752	0.290912
C84	C	1.399635	0.052248	0.790912
C85	C	0.899633	-0.395530	0.290909
C86	C	1.399633	0.104470	0.790909
C87	C	0.958714	-0.369412	0.268508
C88	C	1.458714	0.130588	0.768508
C89	C	0.958721	-0.317204	0.268520
C90	C	1.458721	0.182796	0.768520
N91	N	1.017793	-0.291083	0.246116
N92	N	1.517793	0.208917	0.746116
C93	C	1.076872	-0.317181	0.223713
C94	C	1.576872	0.182819	0.723713
C95	C	0.958765	-0.792393	0.268510
C96	C	1.458765	-0.292393	0.768510
C97	C	0.958772	-0.844612	0.268511
C98	C	1.458772	-0.344612	0.768511
C99	C	1.076928	-0.844589	0.223702
C100	C	1.576928	-0.344589	0.723702
C101	C	1.076925	-0.792369	0.223705
C102	C	1.576925	-0.292369	0.723705
C103	C	1.017837	-0.766272	0.246106
C104	C	1.517837	-0.266272	0.746106
C105	C	1.076863	-0.207523	0.223723
C106	C	1.576863	0.292477	0.723723
C107	C	1.076857	-0.155302	0.223730
C108	C	1.576857	0.344698	0.723730
C109	C	0.958698	-0.155330	0.268536
C110	C	1.458698	0.344670	0.768536
C111	C	0.958706	-0.207546	0.268531
C112	C	1.458706	0.292454	0.768531
C113	C	1.017792	-0.233642	0.246121
C114	C	1.517792	0.266358	0.746121
O115	O	0.908522	-0.290166	0.287576
O116	O	1.408522	0.209834	0.787576
O117	O	1.127102	-0.290162	0.204655
O118	O	1.627102	0.209838	0.704655
C119	C	1.076887	-0.526049	0.223703
C120	C	1.576887	-0.026049	0.723703
C121	C	1.017810	-0.552167	0.246103
C122	C	1.517810	-0.052167	0.746103
C123	C	0.958731	-0.526069	0.268506
C124	C	1.458731	-0.026069	0.768506
C125	C	1.017817	-0.604386	0.246104
C126	C	1.517817	-0.104386	0.746104
C127	C	1.076896	-0.630484	0.223701
C128	C	1.576896	-0.130484	0.723701
C129	C	1.135968	-0.604364	0.201297
C130	C	1.635968	-0.104364	0.701297
C131	C	1.135966	-0.552147	0.201300
C132	C	1.635966	-0.052147	0.701300
C133	C	0.899659	-0.552190	0.290910
C134	C	1.399659	-0.052190	0.790910
C135	C	0.899667	-0.604407	0.290906
C136	C	1.399667	-0.104407	0.790906
C137	C	0.958746	-0.630505	0.268502
C138	C	1.458746	-0.130505	0.768502
C139	C	1.175522	0.000049	0.270479
C140	C	1.675522	0.500049	0.770479
C141	C	1.271241	0.000055	0.288358
C142	C	1.771241	0.500055	0.788358
C143	C	1.025285	0.000032	0.159071
C144	C	1.525285	0.500032	0.659071
C145	C	1.024298	0.000028	0.105237
C146	C	1.524298	0.500028	0.605237
N147	N	1.017851	0.129290	0.246107
N148	N	1.517851	0.629290	0.746107
C149	C	1.096913	0.000056	-0.220434
C150	C	1.596913	0.500056	0.279566
C151	C	1.093254	0.000063	-0.422756
C152	C	1.593254	0.500063	0.077244
O153	O	1.159655	0.000086	-0.441992
O154	O	1.659655	0.500086	0.058008
N155	N	1.014161	0.000060	-0.456196
N156	N	1.514161	0.500060	0.043804
C157	C	0.935977	0.000059	-0.439054
C158	C	1.435977	0.500059	0.060946
O159	O	0.868619	0.000062	-0.472139
O160	O	1.368619	0.500062	0.027861
C161	C	0.939637	0.000055	-0.236732
C162	C	1.439637	0.500055	0.263268
C163	C	1.018735	0.000053	-0.203294
C164	C	1.518735	0.500053	0.296706
C165	C	1.176005	0.000054	-0.186996
C166	C	1.676005	0.500054	0.313004
C167	C	1.176919	0.000050	-0.136419
C168	C	1.676919	0.500050	0.363581
C169	C	1.098741	0.000047	-0.119279
C170	C	1.598741	0.500047	0.380721
C171	C	1.019649	0.000049	-0.152717
C172	C	1.519649	0.500049	0.347283
C173	C	0.861454	0.000058	-0.219591
C174	C	1.361454	0.500058	0.280409
C175	C	0.862376	0.000058	-0.169006
C176	C	1.362376	0.500058	0.330994
C177	C	0.941474	0.000056	-0.135568
C178	C	1.441474	0.500056	0.364432
C179	C	0.942385	0.000041	-0.085000
C180	C	1.442385	0.500041	0.415000
N181	N	1.021478	0.000044	-0.051559
N182	N	1.521478	0.500044	0.448441
C183	C	1.099656	0.000047	-0.068699
C184	C	1.599656	0.500047	0.431301
C185	C	0.934061	0.000059	-0.545274
C186	C	1.434061	0.500059	-0.045274
C187	C	0.933146	0.000059	-0.595855
C188	C	1.433146	0.500059	-0.095855
C189	C	1.090424	0.000064	-0.579553
C190	C	1.590424	0.500064	-0.079553
C191	C	1.091338	0.000061	-0.528972
C192	C	1.591338	0.500061	-0.028972
C193	C	1.013154	0.000062	-0.511834
C194	C	1.513154	0.500062	-0.011834
C195	C	1.101570	0.000037	0.037516
C196	C	1.601570	0.500037	0.537516
C197	C	1.102476	0.000031	0.088097
C198	C	1.602476	0.500031	0.588097
C199	C	0.945199	0.000028	0.071792
C200	C	1.445199	0.500028	0.571792
C201	C	0.944292	0.000032	0.021215
C202	C	1.444292	0.500032	0.521215
C203	C	1.022484	0.000038	0.004079
C204	C	1.522484	0.500038	0.504079
O205	O	0.876019	0.000023	-0.065728
O206	O	1.376019	0.500023	0.434272
O207	O	1.167004	0.000055	-0.035606
O208	O	1.667004	0.500055	0.464394
C209	C	1.095999	0.000060	-0.271011
C210	C	1.595999	0.500060	0.228989
C211	C	1.016907	0.000062	-0.304449
C212	C	1.516907	0.500062	0.195551
C213	C	0.938729	0.000059	-0.287309
C214	C	1.438729	0.500059	0.212691
C215	C	1.015992	0.000062	-0.355029
C216	C	1.515992	0.500062	0.144971
C217	C	1.094170	0.000065	-0.372169
C218	C	1.594170	0.500065	0.127831
C219	C	1.173264	0.000067	-0.338728
C220	C	1.673264	0.500067	0.161272
C221	C	1.174177	0.000063	-0.288151
C222	C	1.674177	0.500063	0.211849
C223	C	0.859636	0.000056	-0.320750
C224	C	1.359636	0.500056	0.179250
C225	C	0.858729	0.000060	-0.371326
C226	C	1.358729	0.500060	0.128674
C227	C	0.936907	0.000063	-0.388466
C228	C	1.436907	0.500063	0.111534
C229	C	1.010338	0.000055	0.333172
C230	C	1.510338	0.500055	0.833172
C231	C	1.011324	0.000062	0.387006
C232	C	1.511324	0.500062	0.887006
H233	H	0.670117	0.000054	0.318707
H234	H	1.170117	0.500054	0.818707
Cl235	Cl	1.210241	-0.480515	0.173140
Cl236	Cl	1.710241	0.019485	0.673140
H237	H	1.184065	-0.374236	0.183068
H238	H	1.684065	0.125764	0.683068
Cl239	Cl	1.151138	-0.122471	0.195567
Cl240	Cl	1.651138	0.377529	0.695567
H241	H	0.910605	-0.228812	0.286778
H242	H	1.410605	0.271188	0.786778
Cl243	Cl	0.284191	0.000036	0.191139
Cl244	Cl	0.784191	0.500036	0.691139
H245	H	0.881549	0.000024	0.085756
H246	H	1.381549	0.500024	0.585756
H247	H	0.612565	0.000024	0.095444
H248	H	1.112565	0.500024	0.595444
Cl249	Cl	0.825344	-0.362726	0.319071
Cl250	Cl	1.325344	0.137274	0.819071
H251	H	0.736331	0.000047	0.278731
H252	H	1.236331	0.500047	0.778731
H253	H	0.870391	0.000060	-0.531326
H254	H	1.370391	0.500060	-0.031326
H255	H	1.155747	0.000059	-0.501750
H256	H	1.655747	0.500059	-0.001750
Cl257	Cl	1.201922	0.000029	0.130132
Cl258	Cl	1.701922	0.500029	0.630132
H259	H	0.365499	0.000028	0.173537
H260	H	0.865499	0.500028	0.673537
H261	H	0.568834	0.000066	0.379876
H262	H	1.068834	0.500066	0.879876
H263	H	0.466799	0.000028	0.112362
H264	H	0.966799	0.500028	0.612362
H265	H	0.851558	-0.625668	0.309152
H266	H	1.351558	-0.125668	0.809152
H267	H	0.795972	0.000055	-0.306801
H268	H	1.295972	0.500055	0.193199
H269	H	1.165241	0.000044	0.023571
H270	H	1.665241	0.500044	0.523571
H271	H	0.910648	-0.771148	0.286753
H272	H	1.410648	-0.271148	0.786753
Cl273	Cl	0.438164	0.000072	0.419169
Cl274	Cl	0.938164	0.500072	0.919169
H275	H	1.125034	-0.771107	0.205463
H276	H	1.625034	-0.271107	0.705463
Cl277	Cl	0.825383	-0.519388	0.319078
Cl278	Cl	1.325383	-0.019388	0.819078
Cl279	Cl	1.271543	0.000068	-0.360285
Cl280	Cl	1.771543	0.500068	0.139715
H281	H	0.910599	-0.134073	0.286778
H282	H	1.410599	0.365927	0.786778
H283	H	0.259887	0.000068	0.366326
H284	H	0.759887	0.500068	0.866326
H285	H	0.775728	0.000024	0.125923
H286	H	1.275728	0.500024	0.625923
Cl287	Cl	0.884506	-0.877440	0.296682
Cl288	Cl	1.384506	-0.377440	0.796682
Cl289	Cl	1.151144	-0.240321	0.195550
Cl290	Cl	1.651144	0.259679	0.695550
Cl291	Cl	1.151197	-0.877409	0.195537
Cl292	Cl	1.651197	-0.377409	0.695537
H293	H	0.851525	-0.469010	0.309152
H294	H	1.351525	0.030990	0.809152
H295	H	1.184075	-0.530886	0.183059
H296	H	1.684075	-0.030886	0.683059
Cl297	Cl	1.210240	-0.637182	0.173134
Cl298	Cl	1.710240	-0.137182	0.673134
H299	H	1.241329	0.000050	-0.109197
H300	H	1.741329	0.500050	0.390803
H301	H	1.239671	0.000058	-0.200945
H302	H	1.739671	0.500058	0.299055
H303	H	0.868736	0.000052	-0.623076
H304	H	1.368736	0.500052	-0.123076
H305	H	1.154079	0.000066	-0.593517
H306	H	1.654079	0.500066	-0.093517
Cl307	Cl	0.762009	0.000064	-0.261616
Cl308	Cl	1.262009	0.500064	0.238384
Cl309	Cl	0.764081	0.000060	-0.147465
Cl310	Cl	1.264081	0.500060	0.352535
H311	H	0.879883	0.000020	-0.006012
H312	H	1.379883	0.500020	0.493988
H313	H	1.238587	0.000061	-0.260929
H314	H	1.738587	0.500061	0.239071
H315	H	0.794312	0.000058	-0.398549
H316	H	1.294312	0.500058	0.101451
