data_functionalizedCrystal
_audit_creation_method	'MofGen! by Chris Wilmer'
_symmetry_space_group_name_H-M	'P1'
_symmetry_Int_Tables_number	1
_symmetry_cell_setting	triclinic
loop_
_symmetry_equiv_pos_as_xyz
  x,y,z
_cell_length_a	19.188930
_cell_length_b	10.654551
_cell_length_c	9.730223
_cell_angle_alpha	90.001469
_cell_angle_beta	89.985926
_cell_angle_gamma	83.815072
loop_
_atom_site_label
_atom_site_type_symbol
_atom_site_fract_x
_atom_site_fract_y
_atom_site_fract_z
O1	O	0.927166	0.156774	-0.114724
O2	O	0.723993	0.177880	-0.114629
O3	O	0.830251	-0.015511	-0.114679
O4	O	0.820909	0.350165	-0.114673
O5	O	0.830250	-0.015506	0.113901
O6	O	0.723992	0.177885	0.113951
O7	O	0.927165	0.156779	0.113856
Zn8	Zn	0.825578	0.167333	0.150196
Zn9	Zn	0.825580	0.167326	-0.150968
O10	O	0.820908	0.350170	0.113907
C11	C	0.697977	0.177199	-0.000326
C12	C	0.620459	0.175147	-0.000290
C13	C	0.829564	-0.062292	-0.000392
C14	C	0.827511	-0.201692	-0.000400
C15	C	0.576278	0.288622	-0.000310
C16	C	0.503441	0.286695	-0.000325
C17	C	0.474790	0.171285	-0.000348
C18	C	0.518981	0.057795	-0.000321
C19	C	0.591816	0.059726	-0.000292
N20	N	0.366233	0.083068	-0.078201
N21	N	0.297042	0.081242	-0.078231
C22	C	0.255343	0.165461	-0.000432
N23	N	0.285447	0.251596	0.077381
N24	N	0.354643	0.253426	0.077405
C25	C	0.395813	0.169179	-0.000379
C26	C	0.132183	0.276855	-0.000467
C27	C	0.059346	0.274922	-0.000473
C28	C	0.074887	0.046020	-0.000483
C29	C	0.147723	0.047955	-0.000462
C30	C	0.176366	0.163376	-0.000461
C31	C	0.826549	-0.267186	-0.124996
C32	C	0.824614	-0.398165	-0.124989
C33	C	0.824607	-0.398145	0.124221
C34	C	0.826537	-0.267167	0.124213
C35	C	0.827524	-0.201710	-0.249609
C36	C	0.826562	-0.267205	-0.374215
C37	C	0.824627	-0.398184	-0.374208
C38	C	0.823654	-0.463669	-0.249595
C39	C	0.953181	0.157460	-0.000449
C40	C	1.030699	0.159512	-0.000494
C41	C	0.821594	0.396951	-0.000384
C42	C	0.823647	0.536351	-0.000384
N43	N	0.825582	0.167336	0.355732
N44	N	0.825582	0.167313	-0.356505
C45	C	0.872645	0.081731	0.427636
C46	C	0.872644	0.081716	0.571519
C47	C	0.778513	0.252922	0.571582
C48	C	0.778512	0.252930	0.427701
C49	C	0.919715	-0.003862	0.355667
C50	C	0.966783	-0.089473	0.427570
C51	C	0.966781	-0.089488	0.571453
C52	C	0.919712	-0.003893	0.643433
H53	H	0.599594	0.382607	-0.000312
H54	H	0.155506	0.370837	-0.000445
F55	F	0.823597	-0.467883	-0.506822
H56	H	0.051560	-0.047949	-0.000586
H57	H	0.823815	-0.451474	0.225676
F58	F	0.638839	-0.061055	-0.000271
H59	H	0.829101	-0.095061	-0.249629
H60	H	0.827306	-0.213837	0.225670
H61	H	0.023373	0.367331	-0.000482
F62	F	0.919708	-0.003925	0.796567
H63	H	0.467462	0.379103	-0.000338
H64	H	0.183697	-0.044449	-0.000454
H65	H	0.827348	-0.213877	-0.475671
H66	H	0.495648	-0.036172	-0.000358
H67	H	0.822069	-0.570319	-0.249599
H68	H	0.919723	-0.003855	0.238510
H69	H	1.005101	-0.159169	0.368958
F70	F	0.728424	0.344014	0.648191
H71	H	1.005100	-0.159204	0.629996
F72	F	0.728420	0.344038	0.351175
