data_functionalizedCrystal
_audit_creation_method	'MofGen! by Chris Wilmer'
_symmetry_space_group_name_H-M	'P1'
_symmetry_Int_Tables_number	1
_symmetry_cell_setting	triclinic
loop_
_symmetry_equiv_pos_as_xyz
  x,y,z
_cell_length_a	13.897448
_cell_length_b	13.033293
_cell_length_c	13.032268
_cell_angle_alpha	90.920818
_cell_angle_beta	82.851959
_cell_angle_gamma	97.187372
loop_
_atom_site_label
_atom_site_type_symbol
_atom_site_fract_x
_atom_site_fract_y
_atom_site_fract_z
Zn1	Zn	-0.300097	1.498462	0.781480
Zn2	Zn	0.199903	1.998462	1.281480
Zn3	Zn	-0.438715	1.520205	0.609506
Zn4	Zn	0.061285	2.020205	1.109506
Zn5	Zn	-0.295004	1.348322	0.587656
Zn6	Zn	0.204996	1.848322	1.087656
Zn7	Zn	-0.478925	1.326456	0.759546
Zn8	Zn	0.021075	1.826456	1.259546
O9	O	-0.378185	1.423361	0.684547
O10	O	0.121815	1.923361	1.184547
O11	O	-0.303789	1.645265	0.776992
O12	O	0.196211	2.145265	1.276992
O13	O	-0.400691	1.515655	0.462699
O14	O	0.099309	2.015655	0.962699
O15	O	-0.160696	1.368291	0.613402
O16	O	0.339304	1.868291	1.113402
O17	O	-0.405630	1.661239	0.650643
O18	O	0.094370	2.161239	1.150643
O19	O	-0.164438	1.478598	0.755804
O20	O	0.335562	1.978598	1.255804
O21	O	-0.295107	1.389374	0.446646
O22	O	0.204893	1.889374	0.946646
O23	O	-0.334098	1.201503	0.592134
O24	O	0.165902	1.701503	1.092134
O25	O	-0.474163	1.331022	0.906364
O26	O	0.025837	1.831022	1.406364
O27	O	-0.469224	1.185438	0.718420
O28	O	0.030776	1.685438	1.218420
O29	O	-0.342779	1.457394	0.922479
O30	O	0.157221	1.957394	1.422479
O31	O	-0.579032	1.494452	0.629374
O32	O	-0.079032	1.994452	1.129374
O33	O	-0.608575	1.352105	0.739608
O34	O	-0.108575	1.852105	1.239608
C35	C	-0.405472	1.156154	0.650526
C36	C	0.094528	1.656154	1.150526
C37	C	-0.417172	1.041838	0.635996
C38	C	0.082828	1.541838	1.135996
C39	C	-0.372103	0.982956	0.692130
C40	C	0.127897	1.482956	1.192130
C41	C	-0.384195	0.864805	0.677114
C42	C	0.115805	1.364805	1.177114
C43	C	-0.628803	1.423290	0.684508
C44	C	-0.128803	1.923290	1.184508
C45	C	-0.736014	1.423349	0.684537
C46	C	-0.236014	1.923349	1.184537
C47	C	-0.932306	1.423449	0.684616
C48	C	-0.432306	1.923449	1.184616
C49	C	-0.823076	1.423390	0.684575
C50	C	-0.323076	1.923390	1.184575
C51	C	-0.126589	1.423458	0.684613
C52	C	0.373411	1.923458	1.184613
C53	C	-0.019373	1.423499	0.684641
C54	C	0.480627	1.923499	1.184641
C55	C	-0.413525	1.389344	0.952779
C56	C	0.086475	1.889344	1.452779
C57	C	-0.428585	1.374847	1.067083
C58	C	0.071415	1.874847	1.567083
C59	C	-0.350792	1.691612	0.718701
C60	C	0.149208	2.191612	1.218701
C61	C	-0.339119	1.805925	0.733256
C62	C	0.160881	2.305925	1.233256
C63	C	-0.342907	1.457306	0.417367
C64	C	0.157093	1.957306	0.917367
C65	C	-0.327556	1.472001	0.303088
C66	C	0.172444	1.972001	0.803088
C67	C	-0.370293	1.430911	1.126017
C68	C	0.129707	1.930911	1.626017
C69	C	-0.385856	1.415930	1.244156
C70	C	0.114144	1.915930	1.744156
H71	H	-0.464707	1.004778	0.576820
H72	H	0.035293	1.504778	1.076820
H73	H	-0.291573	0.842979	0.792430
H74	H	0.208427	1.342979	1.292430
C75	C	-0.364846	1.086388	0.845748
C76	C	0.135154	1.586388	1.345748
C77	C	-0.307930	1.032975	0.772020
C78	C	0.192070	1.532975	1.272020
H79	H	-0.325227	1.117260	0.895073
H80	H	0.174773	1.617260	1.395073
H81	H	-0.391545	1.138634	0.812473
H82	H	0.108455	1.638634	1.312473
H83	H	-0.416358	1.039488	0.879714
H84	H	0.083642	1.539488	1.379714
H85	H	-0.256422	1.079876	0.738049
H86	H	0.243578	1.579876	1.238049
H87	H	-0.281216	0.980723	0.805299
H88	H	0.218784	1.480723	1.305299
C89	C	-0.454984	1.237569	1.255254
C90	C	0.045016	1.737569	1.755254
C91	C	-0.468788	1.336155	1.294102
C92	C	0.031212	1.836155	1.794102
H93	H	-0.506180	1.188322	1.286096
H94	H	-0.006180	1.688322	1.786096
H95	H	-0.455412	1.237176	1.182425
H96	H	0.044588	1.737176	1.682425
H97	H	-0.394003	1.220345	1.270913
H98	H	0.105997	1.720345	1.770913
H99	H	-0.529767	1.353383	1.278436
H100	H	-0.029767	1.853383	1.778436
H101	H	-0.468370	1.336551	1.366948
H102	H	0.031630	1.836551	1.866948
C103	C	-0.497708	1.196491	1.078186
C104	C	0.002292	1.696491	1.578186
C105	C	-0.511513	1.295076	1.117033
C106	C	-0.011513	1.795076	1.617033
H107	H	-0.548904	1.147244	1.109028
H108	H	-0.048904	1.647244	1.609028
H109	H	-0.498137	1.196097	1.005356
H110	H	0.001863	1.696097	1.505356
H111	H	-0.436727	1.179266	1.093844
H112	H	0.063273	1.679266	1.593844
H113	H	-0.572491	1.312304	1.101367
H114	H	-0.072491	1.812304	1.601367
H115	H	-0.511094	1.295472	1.189879
H116	H	-0.011094	1.795472	1.689879
C117	C	-0.223272	1.460480	1.006926
C118	C	0.276728	1.960480	1.506926
C119	C	-0.287368	1.510685	1.076066
C120	C	0.212632	2.010685	1.576066
H121	H	-0.172082	1.509734	0.976086
H122	H	0.327918	2.009734	1.476086
H123	H	-0.196428	1.410424	1.043140
H124	H	0.303572	1.910424	1.543140
H125	H	-0.257839	1.427247	0.954651
H126	H	0.242161	1.927247	1.454651
H127	H	-0.252803	1.543912	1.128346
H128	H	0.247197	2.043912	1.628346
H129	H	-0.314214	1.560760	1.039851
H130	H	0.185786	2.060760	1.539851
C131	C	-0.180514	1.501541	1.184031
C132	C	0.319486	2.001541	1.684031
C133	C	-0.244606	1.551765	1.253157
C134	C	0.255394	2.051765	1.753157
H135	H	-0.129304	1.550781	1.153205
H136	H	0.370696	2.050781	1.653205
H137	H	-0.153695	1.451470	1.220253
H138	H	0.346305	1.951470	1.720253
H139	H	-0.215075	1.468323	1.131744
H140	H	0.284925	1.968323	1.631744
H141	H	-0.210046	1.584976	1.305448
H142	H	0.289954	2.084976	1.805448
H143	H	-0.271425	1.601854	1.216934
H144	H	0.228575	2.101854	1.716934
C145	C	-0.524306	0.745683	0.647322
C146	C	-0.024306	1.245683	1.147322
C147	C	-0.448378	0.814793	0.597225
C148	C	0.051622	1.314793	1.097225
H149	H	-0.563931	0.714814	0.598003
H150	H	-0.063931	1.214814	1.098003
H151	H	-0.497593	0.693437	0.680582
H152	H	0.002407	1.193437	1.180582
H153	H	-0.562897	0.781935	0.697348
H154	H	-0.062897	1.281935	1.197348
H155	H	-0.409782	0.778539	0.547205
H156	H	0.090218	1.278539	1.047205
H157	H	-0.475091	0.867047	0.563949
H158	H	0.024909	1.367047	1.063949
