data_functionalizedCrystal
_audit_creation_method	'MofGen! by Chris Wilmer'
_symmetry_space_group_name_H-M	'P1'
_symmetry_Int_Tables_number	1
_symmetry_cell_setting	triclinic
loop_
_symmetry_equiv_pos_as_xyz
  x,y,z
_cell_length_a	12.759394
_cell_length_b	12.759395
_cell_length_c	12.759387
_cell_angle_alpha	90.019237
_cell_angle_beta	89.968668
_cell_angle_gamma	89.987686
loop_
_atom_site_label
_atom_site_type_symbol
_atom_site_fract_x
_atom_site_fract_y
_atom_site_fract_z
Zn1	Zn	-0.418285	-1.606253	-0.594003
Zn2	Zn	-0.594001	-1.606147	-0.418321
Zn3	Zn	-0.418329	-1.430555	-0.418340
Zn4	Zn	-0.593915	-1.430543	-0.593960
O5	O	-0.506133	-1.518375	-0.506156
O6	O	-0.441612	-1.753260	-0.570709
O7	O	-0.570752	-1.582816	-0.271302
O8	O	-0.271302	-1.453911	-0.441668
O9	O	-0.570710	-1.753182	-0.441636
O10	O	-0.271270	-1.582995	-0.570727
O11	O	-0.441687	-1.453809	-0.271316
O12	O	-0.441603	-1.283533	-0.441626
O13	O	-0.570563	-1.453890	-0.740987
O14	O	-0.570606	-1.283523	-0.570653
O15	O	-0.441529	-1.582983	-0.741019
O16	O	-0.741011	-1.582804	-0.441594
O17	O	-0.740948	-1.453788	-0.570635
C18	C	-0.506101	-1.245407	-0.506137
C19	C	-0.506112	-1.128630	-0.506154
C20	C	-0.371900	-1.128692	-0.640775
C21	C	-0.304804	-1.073862	-0.708093
C22	C	-0.304818	-0.964140	-0.708103
C23	C	-0.371933	-0.909246	-0.640787
C24	C	-0.439029	-0.964076	-0.573469
C25	C	-0.439010	-1.073800	-0.573468
C26	C	-0.573234	-0.964015	-0.438845
C27	C	-0.573227	-1.073736	-0.438838
C28	C	-0.640349	-0.909121	-0.371528
C29	C	-0.707451	-0.963951	-0.304214
C30	C	-0.707435	-1.073679	-0.304207
C31	C	-0.640323	-1.128567	-0.371520
C32	C	-0.779100	-1.518312	-0.506131
C33	C	-0.895877	-1.518381	-0.506155
C34	C	-0.895889	-1.652826	-0.371885
C35	C	-0.950756	-1.720076	-0.304763
C36	C	-1.060478	-1.720137	-0.304791
C37	C	-1.115335	-1.652944	-0.371952
C38	C	-1.060468	-1.585694	-0.439074
C39	C	-0.950744	-1.585637	-0.439036
C40	C	-1.060455	-1.451256	-0.573348
C41	C	-0.950734	-1.451187	-0.573315
C42	C	-1.115312	-1.384062	-0.640508
C43	C	-1.060445	-1.316806	-0.707627
C44	C	-0.950717	-1.316746	-0.707595
C45	C	-0.895867	-1.383937	-0.640438
C46	C	-0.232099	-1.518467	-0.506205
C47	C	-0.115323	-1.518506	-0.506225
C48	C	-0.506031	-1.518447	-0.780190
C49	C	-0.505988	-1.518478	-0.896966
C50	C	-0.506155	-0.792408	-0.506170
C51	C	-0.506138	-0.909185	-0.506162
C52	C	-0.371550	-1.652970	-1.116443
C53	C	-0.304389	-1.720168	-1.061598
C54	C	-0.304424	-1.720139	-0.951876
C55	C	-0.371630	-1.652905	-0.896997
C56	C	-0.438791	-1.585706	-0.951843
C57	C	-0.438747	-1.585741	-1.061567
C58	C	-0.573150	-1.451279	-0.951812
C59	C	-0.573111	-1.451302	-1.061534
C60	C	-0.640356	-1.384046	-0.896933
C61	C	-0.707514	-1.316840	-0.951778
C62	C	-0.707475	-1.316872	-1.061507
C63	C	-0.640273	-1.384103	-1.116379
C64	C	-0.506158	-1.518363	-0.233189
C65	C	-0.505905	-1.518535	-0.116412
H66	H	-0.762086	-0.919248	-0.249406
Br67	Br	-1.264220	-1.383653	-0.640056
Br68	Br	-0.640207	-1.384143	-1.265288
H69	H	-0.906082	-1.774786	-0.250083
Br70	Br	-0.746958	-1.384199	-0.640726
H71	H	-0.762233	-1.262109	-0.907087
Br72	Br	-0.371475	-1.652992	-1.265352
Br73	Br	-0.213192	-1.811417	-1.136079
Br74	Br	-0.213721	-1.148364	-0.799443
H75	H	-0.371877	-1.218033	-0.640768
H76	H	-0.640298	-1.217908	-0.371516
Br77	Br	-1.134945	-1.811413	-0.213705
Br78	Br	-1.264243	-1.652537	-0.371497
H79	H	-0.806548	-1.652769	-0.371842
H80	H	-0.762069	-1.118315	-0.249385
H81	H	-0.250177	-0.919497	-0.762913
Br82	Br	-0.640412	-1.384011	-0.748024
H83	H	-0.249737	-1.774860	-0.907221
Br84	Br	-0.371693	-1.652883	-0.748088
H85	H	-0.762171	-1.262154	-1.106155
H86	H	-0.371930	-0.819905	-0.640793
H87	H	-0.640353	-0.819780	-0.371539
H88	H	-1.105119	-1.262107	-0.762308
H89	H	-0.906050	-1.261987	-0.762258
