data_functionalizedCrystal
_audit_creation_method	'MofGen! by Chris Wilmer'
_symmetry_space_group_name_H-M	'P1'
_symmetry_Int_Tables_number	1
_symmetry_cell_setting	triclinic
loop_
_symmetry_equiv_pos_as_xyz
  x,y,z
_cell_length_a	12.759401
_cell_length_b	12.759399
_cell_length_c	12.759393
_cell_angle_alpha	89.971637
_cell_angle_beta	90.018496
_cell_angle_gamma	89.984308
loop_
_atom_site_label
_atom_site_type_symbol
_atom_site_fract_x
_atom_site_fract_y
_atom_site_fract_z
Zn1	Zn	1.606249	0.418200	0.594005
Zn2	Zn	1.606141	0.593919	0.418335
Zn3	Zn	1.430551	0.418255	0.418344
Zn4	Zn	1.430537	0.593838	0.593976
O5	O	1.518370	0.506053	0.506165
O6	O	1.753256	0.441520	0.570710
O7	O	1.582809	0.570673	0.271315
O8	O	1.453909	0.271226	0.441662
O9	O	1.753176	0.570620	0.441646
O10	O	1.582994	0.271186	0.570719
O11	O	1.453804	0.441614	0.271322
O12	O	1.283528	0.441535	0.441634
O13	O	1.453885	0.570482	0.741001
O14	O	1.283518	0.570536	0.570670
O15	O	1.582980	0.441442	0.741022
O16	O	1.582796	0.740929	0.441618
O17	O	1.453780	0.740870	0.570661
C18	C	1.245402	0.506033	0.506151
C19	C	1.128626	0.506050	0.506169
C20	C	1.073786	0.573328	0.573247
C21	C	0.964062	0.573342	0.573259
C22	C	0.964027	0.438796	0.439105
C23	C	1.073749	0.438778	0.439100
C24	C	1.128662	0.640600	0.640317
C25	C	1.073823	0.707885	0.707399
C26	C	0.964098	0.707898	0.707411
C27	C	0.909214	0.640627	0.640340
C28	C	1.518303	0.779020	0.506158
C29	C	1.518371	0.895797	0.506191
C30	C	1.585623	0.950655	0.439075
C31	C	1.585686	1.060379	0.439114
C32	C	1.451236	1.060377	0.573386
C33	C	1.451179	0.950655	0.573352
C34	C	1.652815	0.895797	0.371914
C35	C	1.720072	0.950655	0.304792
C36	C	1.720135	1.060379	0.304831
C37	C	1.652941	1.115245	0.371991
C38	C	1.792403	0.506073	0.506180
C39	C	1.909180	0.506082	0.506186
C40	C	1.518443	0.505947	0.780198
C41	C	1.518475	0.505902	0.896975
C42	C	1.518461	1.232019	0.506209
C43	C	1.518491	1.115243	0.506263
C44	C	1.518357	0.506083	0.233198
C45	C	1.518529	0.505832	0.116421
C46	C	1.585704	0.438704	0.951850
C47	C	1.585729	0.438666	1.061574
C48	C	1.451293	0.573033	1.061539
C49	C	1.451263	0.573064	0.951817
C50	C	1.652915	0.371541	0.897008
C51	C	1.720150	0.304339	0.951883
C52	C	1.720175	0.304301	1.061607
C53	C	1.652965	0.371465	1.116456
H54	H	0.919332	0.384028	0.384498
H55	H	1.774914	0.249574	1.106283
N56	N	1.378631	0.891481	0.645727
H57	H	1.388793	0.813649	0.635514
H58	H	1.394948	0.910582	0.720784
N59	N	1.653014	1.233590	0.372023
H60	H	1.580968	1.260094	0.352656
H61	H	1.672348	1.259866	0.444133
H62	H	1.396503	0.627767	0.907137
N63	N	1.652979	0.371417	1.234802
H64	H	1.705763	0.318651	1.261245
H65	H	1.672238	0.443516	1.261141
H66	H	1.652769	0.806454	0.371872
H67	H	1.774785	0.905977	0.250118
H68	H	1.396573	0.627714	1.106206
N69	N	1.247006	0.640593	0.640297
H70	H	1.273451	0.693417	0.692960
H71	H	1.273376	0.568507	0.659699
H72	H	0.919451	0.762676	0.762040
H73	H	1.396529	1.105058	0.628064
N74	N	1.133011	0.780433	0.779742
H75	H	1.210841	0.770220	0.769556
H76	H	1.113811	0.855449	0.763262
N77	N	1.652889	0.371562	0.778665
H78	H	1.580819	0.352244	0.752235
H79	H	1.672208	0.443658	0.752300
H80	H	0.819870	0.640634	0.640363
N81	N	1.792640	0.231906	0.892728
H82	H	1.835231	0.189328	0.944144
H83	H	1.749884	0.183296	0.847206
H84	H	1.118401	0.383987	0.384487
N85	N	1.792679	1.119550	0.232449
H86	H	1.835233	1.068145	0.189901
H87	H	1.749962	1.165151	0.183810
