data_functionalizedCrystal
_audit_creation_method	'MofGen! by Chris Wilmer'
_symmetry_space_group_name_H-M	'P1'
_symmetry_Int_Tables_number	1
_symmetry_cell_setting	triclinic
loop_
_symmetry_equiv_pos_as_xyz
  x,y,z
_cell_length_a	16.109301
_cell_length_b	16.109304
_cell_length_c	14.586319
_cell_angle_alpha	89.999019
_cell_angle_beta	89.998857
_cell_angle_gamma	83.462111
loop_
_atom_site_label
_atom_site_type_symbol
_atom_site_fract_x
_atom_site_fract_y
_atom_site_fract_z
O1	O	1.103132	0.106867	-0.076184
O2	O	0.861070	0.120166	-0.076196
O3	O	0.988749	-0.007514	-0.076190
O4	O	0.975452	0.234547	-0.076190
O5	O	0.988740	-0.007516	0.076290
O6	O	0.861061	0.120164	0.076284
O7	O	1.103123	0.106865	0.076297
Cu8	Cu	0.982091	0.113514	0.090213
Cu9	Cu	0.982102	0.113517	-0.090113
O10	O	0.975444	0.234545	0.076291
C11	C	0.830091	0.119626	0.000042
C12	C	0.737795	0.118011	0.000038
C13	C	0.428798	0.188494	0.000054
C14	C	0.515518	0.190020	0.000048
C15	C	0.535390	0.038531	0.000036
C16	C	0.448671	0.037007	0.000035
C17	C	0.395377	0.111991	0.000048
C18	C	0.568816	0.115040	0.000044
C19	C	0.662842	0.116694	0.000038
C20	C	0.301345	0.110338	0.000052
C21	C	0.988206	-0.038490	0.000048
C22	C	0.986590	-0.130785	0.000042
C23	C	0.982861	-0.343122	-0.083073
C24	C	0.981335	-0.429842	-0.083072
C25	C	0.981329	-0.429841	0.083171
C26	C	0.982850	-0.343122	0.083169
C27	C	0.983620	-0.299765	0.000045
C28	C	0.980573	-0.473204	0.000047
C29	C	0.978919	-0.567230	0.000049
C30	C	0.985273	-0.205733	0.000043
C31	C	1.134102	0.107405	0.000056
C32	C	1.226398	0.109020	0.000055
C33	C	0.975987	0.265521	0.000050
C34	C	0.977603	0.357816	0.000051
N35	N	0.982090	0.113512	0.217045
N36	N	0.982110	0.113512	-0.216945
C37	C	1.038645	0.056994	0.452054
C38	C	1.038647	0.056992	0.548035
C39	C	0.925548	0.170033	0.548040
C40	C	0.925543	0.170030	0.452060
C41	C	0.982096	0.113512	0.404070
C42	C	0.982104	0.113513	0.596031
C43	C	0.982106	0.113511	0.700098
C44	C	0.982093	0.113512	0.299996
H45	H	0.578792	-0.022518	0.000027
F46	F	0.865349	0.230183	0.400988
F47	F	0.372081	0.268299	0.000065
H48	H	1.084693	0.010973	0.412983
H49	H	0.879505	0.216050	0.587123
H50	H	0.983462	-0.307819	0.150858
F51	F	0.551083	0.271445	0.000051
H52	H	1.084694	0.010970	0.587102
H53	H	0.421460	-0.025296	0.000027
H54	H	0.983486	-0.307823	-0.150758
H55	H	0.980715	-0.465139	-0.150754
F56	F	0.980510	-0.475991	0.171633
