data_functionalizedCrystal
_audit_creation_method	'MofGen! by Chris Wilmer'
_symmetry_space_group_name_H-M	'P1'
_symmetry_Int_Tables_number	1
_symmetry_cell_setting	triclinic
loop_
_symmetry_equiv_pos_as_xyz
  x,y,z
_cell_length_a	13.262503
_cell_length_b	10.268362
_cell_length_c	13.339070
_cell_angle_alpha	90.002467
_cell_angle_beta	80.566440
_cell_angle_gamma	105.911600
loop_
_atom_site_label
_atom_site_type_symbol
_atom_site_fract_x
_atom_site_fract_y
_atom_site_fract_z
O1	O	-1.432360	-0.399037	0.136493
O2	O	-1.131106	-0.292332	0.151313
O3	O	-1.247159	-0.333442	-0.003508
O4	O	-1.316307	-0.357927	0.291314
O5	O	-1.247143	-0.550037	-0.003514
O6	O	-1.131090	-0.508927	0.151307
O7	O	-1.432345	-0.615632	0.136487
Cu8	Cu	-1.281716	-0.582056	0.143896
Cu9	Cu	-1.281734	-0.325908	0.143904
O10	O	-1.316291	-0.574522	0.291307
C11	C	-1.091753	-0.386694	0.150477
C12	C	-0.974514	-0.345167	0.147982
C13	C	-0.643996	-0.700378	0.140950
C14	C	-0.754149	-0.739401	0.143298
C15	C	-0.809246	-0.640846	0.144469
C16	C	-0.754179	-0.503262	0.143291
C17	C	-0.644016	-0.464236	0.140950
C18	C	-0.809266	-0.404703	0.144470
C19	C	-0.754198	-0.267119	0.143292
C20	C	-0.644047	-0.228100	0.140951
C21	C	-0.588950	-0.326655	0.139780
C22	C	-0.919428	-0.443729	0.146811
C23	C	-0.919448	-0.207586	0.146812
C24	C	-0.809295	-0.168564	0.144463
N25	N	-1.281710	-0.762220	0.143890
C26	C	-1.281729	-1.027897	0.143902
C27	C	-1.281716	-0.880055	0.143898
C28	C	-0.471696	-0.521271	0.137313
C29	C	-0.588931	-0.562797	0.139779
C30	C	-1.235470	-0.437601	-0.041250
C31	C	-1.200653	-0.425263	-0.153700
N32	N	-1.281746	-0.145746	0.143902
C33	C	-1.471372	-0.521152	-0.517340
C34	C	-1.504087	-0.532753	-0.411688
C35	C	-1.428231	-0.505881	-0.347186
C36	C	-1.319655	-0.467408	-0.388346
C37	C	-1.286936	-0.455817	-0.494008
C38	C	-1.243796	-0.440545	-0.323854
C39	C	-1.135219	-0.402072	-0.365014
C40	C	-1.102505	-0.390482	-0.470666
C41	C	-1.178361	-0.417354	-0.535169
C42	C	-1.276514	-0.452136	-0.218192
C43	C	-1.092079	-0.386800	-0.194860
C44	C	-1.059363	-0.375200	-0.300512
C45	C	-1.327980	-0.470361	0.329049
C46	C	-1.362797	-0.482689	0.441499
H47	H	-0.964253	-0.555751	0.147772
H48	H	-0.898937	-0.672627	0.146382
C49	C	-0.583388	-0.808773	0.139666
C50	C	-0.521322	-0.819236	0.225907
C51	C	-0.460712	-0.927639	0.224626
C52	C	-0.462169	-1.025580	0.137105
C53	C	-0.524237	-1.015120	0.050857
C54	C	-0.584847	-0.906717	0.052138
H55	H	-0.520243	-0.746731	0.290702
H56	H	-0.414765	-0.935381	0.288473
H57	H	-0.417301	-1.105826	0.136156
H58	H	-0.525317	-1.087625	-0.013938
H59	H	-0.630794	-0.898975	-0.011708
C60	C	-1.623515	-0.575054	-0.366420
C61	C	-1.695087	-0.712875	-0.390584
C62	C	-1.814522	-0.755173	-0.345317
C63	C	-1.862385	-0.659651	-0.275885
C64	C	-1.790812	-0.521822	-0.251717
C65	C	-1.671377	-0.479524	-0.296984
H66	H	-1.659656	-0.783593	-0.441985
H67	H	-1.867505	-0.857204	-0.363208
H68	H	-1.950799	-0.690963	-0.242375
H69	H	-1.826243	-0.451104	-0.200316
H70	H	-1.618394	-0.377493	-0.279093
C71	C	-0.980039	-0.099162	0.148094
C72	C	-1.042101	-0.088680	0.061853
C73	C	-1.102700	0.019735	0.063139
C74	C	-1.101237	0.117669	0.150665
C75	C	-1.039174	0.107191	0.236913
C76	C	-0.978575	-0.001224	0.235627
H77	H	-1.043185	-0.161180	-0.002945
H78	H	-1.148643	0.027491	-0.000708
H79	H	-1.146096	0.197925	0.151617
H80	H	-1.038089	0.179691	0.301711
H81	H	-0.932631	-0.008980	0.299474
H82	H	-0.798977	-0.851422	0.144256
C83	C	-0.983074	-0.348186	-0.515950
C84	C	-0.935227	-0.218773	-0.585382
C85	C	-0.815796	-0.176484	-0.630667
C86	C	-0.744212	-0.263608	-0.606521
C87	C	-0.792058	-0.393030	-0.537086
C88	C	-0.911488	-0.435319	-0.491801
H89	H	-0.988219	-0.154271	-0.603259
H90	H	-0.780378	-0.080678	-0.682067
H91	H	-0.655802	-0.232304	-0.640043
H92	H	-0.739066	-0.457531	-0.519208
H93	H	-0.946907	-0.531125	-0.440400
H94	H	-0.970958	-0.343875	-0.334040
C95	C	-1.395942	-0.494444	-0.172923
C96	C	-1.467508	-0.632269	-0.197087
C97	C	-1.586943	-0.674577	-0.151820
C98	C	-1.634813	-0.579060	-0.082387
C99	C	-1.563245	-0.441227	-0.058219
C100	C	-1.443810	-0.398919	-0.103487
H101	H	-1.432073	-0.702984	-0.248488
H102	H	-1.639922	-0.776610	-0.169711
H103	H	-1.723226	-0.610379	-0.048878
H104	H	-1.598680	-0.370511	-0.006818
H105	H	-1.390832	-0.296885	-0.085596
H106	H	-1.151729	-0.407906	-0.621200
H107	H	-1.030310	-0.364925	-0.142342
H108	H	-0.499253	-0.294889	0.137858
C109	C	-1.554801	-0.550714	-0.588293
C110	C	-1.635359	-0.691731	-0.583404
C111	C	-1.718795	-0.721299	-0.654359
C112	C	-1.721673	-0.609849	-0.730205
C113	C	-1.641112	-0.468822	-0.735097
C114	C	-1.557676	-0.439254	-0.664141
H115	H	-1.633231	-0.774242	-0.527256
H116	H	-1.778431	-0.825697	-0.650737
H117	H	-1.783438	-0.631737	-0.782730
H118	H	-1.643241	-0.386311	-0.791245
H119	H	-1.498040	-0.334856	-0.667764
H120	H	-0.599216	-0.116070	0.140003
H121	H	-0.764444	-0.056541	0.143505
H122	H	-1.454875	-0.515328	-0.261160
