data_functionalizedCrystal
_audit_creation_method	'MofGen! by Chris Wilmer'
_symmetry_space_group_name_H-M	'P1'
_symmetry_Int_Tables_number	1
_symmetry_cell_setting	triclinic
loop_
_symmetry_equiv_pos_as_xyz
  x,y,z
_cell_length_a	16.625546
_cell_length_b	14.908571
_cell_length_c	14.908308
_cell_angle_alpha	89.824947
_cell_angle_beta	93.264070
_cell_angle_gamma	93.281505
loop_
_atom_site_label
_atom_site_type_symbol
_atom_site_fract_x
_atom_site_fract_y
_atom_site_fract_z
Zn1	Zn	-0.420778	-1.345280	-0.587557
Zn2	Zn	-0.548312	-1.353856	-0.437189
Zn3	Zn	-0.405291	-1.203596	-0.428555
Zn4	Zn	-0.547354	-1.194884	-0.578841
O5	O	-0.480434	-1.274404	-0.508036
O6	O	-0.444578	-1.472243	-0.574871
O7	O	-0.523260	-1.341159	-0.310220
O8	O	-0.294517	-1.222448	-0.449681
O9	O	-0.538277	-1.478544	-0.464397
O10	O	-0.305896	-1.326543	-0.566499
O11	O	-0.418182	-1.230763	-0.303876
O12	O	-0.417254	-1.076615	-0.441230
O13	O	-0.536644	-1.207599	-0.705821
O14	O	-0.521627	-1.070214	-0.551644
O15	O	-0.443649	-1.318095	-0.712225
O16	O	-0.661013	-1.332711	-0.455945
O17	O	-0.660309	-1.215914	-0.560016
C18	C	-0.467656	-1.040789	-0.494555
C19	C	-0.462211	-0.940846	-0.488810
C20	C	-0.689918	-1.274321	-0.507993
C21	C	-0.779542	-1.274366	-0.508010
C22	C	-0.491767	-1.260918	-0.742560
C23	C	-0.496597	-1.255172	-0.842501
C24	C	-1.107731	-1.274517	-0.508112
C25	C	-1.016419	-1.274472	-0.508086
C26	C	-0.943640	-1.274441	-0.508060
C27	C	-0.852322	-1.274397	-0.508035
C28	C	-0.270134	-1.274511	-0.508099
C29	C	-0.180516	-1.274556	-0.508127
C30	C	-0.493262	-1.508931	-0.521569
C31	C	-0.498728	-1.608873	-0.527336
C32	C	-0.560814	-0.746435	-0.592833
C33	C	-0.555700	-0.652530	-0.587437
C34	C	-0.446865	-0.659128	-0.472629
C35	C	-0.451979	-0.753033	-0.478024
C36	C	-0.508956	-0.796683	-0.538127
C37	C	-0.514074	-0.890591	-0.543517
C38	C	-0.405236	-0.897187	-0.428714
C39	C	-0.400121	-0.803282	-0.423318
C40	C	-0.408817	-1.359429	-1.036969
C41	C	-0.413353	-1.354033	-1.130872
C42	C	-0.510198	-1.238977	-1.124211
C43	C	-0.505662	-1.244374	-1.030308
C44	C	-0.454971	-1.304603	-0.986690
C45	C	-0.450441	-1.310004	-0.892786
C46	C	-0.547281	-1.194945	-0.886127
C47	C	-0.551817	-1.189548	-0.980030
C48	C	-0.469089	-1.287889	-0.274426
C49	C	-0.464042	-1.293810	-0.174497
H50	H	-0.560469	-0.926129	-0.592455
C51	C	-0.607567	-1.123293	-1.028020
N52	N	-0.649560	-1.073388	-1.064165
C53	C	-0.353062	-1.425685	-0.988987
N54	N	-0.311065	-1.475589	-0.952849
C55	C	-0.612753	-0.597260	-0.647612
N56	N	-0.655729	-0.555630	-0.692936
C57	C	-0.384187	-0.611096	-0.406530
N58	N	-0.336977	-0.574917	-0.356745
C59	C	-0.337450	-0.755256	-0.357209
N60	N	-0.290246	-0.719084	-0.307411
C61	C	-0.623491	-0.794452	-0.658942
N62	N	-0.670701	-0.830618	-0.708738
C63	C	-0.394678	-1.376254	-0.844807
N64	N	-0.352672	-1.426152	-0.808673
C65	C	-0.348191	-0.952469	-0.368530
N66	N	-0.305228	-0.994108	-0.323199
H67	H	-0.584866	-1.150303	-0.845180
H68	H	-0.375767	-1.398676	-1.171805
H69	H	-0.551467	-1.189942	-1.159741
