data_functionalizedCrystal
_audit_creation_method	'MofGen! by Chris Wilmer'
_symmetry_space_group_name_H-M	'P1'
_symmetry_Int_Tables_number	1
_symmetry_cell_setting	triclinic
loop_
_symmetry_equiv_pos_as_xyz
  x,y,z
_cell_length_a	13.032831
_cell_length_b	12.759400
_cell_length_c	13.032268
_cell_angle_alpha	82.849813
_cell_angle_beta	89.113023
_cell_angle_gamma	82.819639
loop_
_atom_site_label
_atom_site_type_symbol
_atom_site_fract_x
_atom_site_fract_y
_atom_site_fract_z
Zn1	Zn	1.498516	-0.709532	0.780845
Zn2	Zn	1.520267	-0.866067	0.608867
Zn3	Zn	1.348373	-0.665643	0.587085
Zn4	Zn	1.326515	-0.860387	0.758992
O5	O	1.423418	-0.775407	0.683947
O6	O	1.645323	-0.751042	0.776293
O7	O	1.515715	-0.823490	0.462060
O8	O	1.368334	-0.524453	0.612817
O9	O	1.661303	-0.866048	0.649941
O10	O	1.478644	-0.556699	0.755172
O11	O	1.389425	-0.676239	0.446057
O12	O	1.201551	-0.670731	0.591628
O13	O	1.331081	-0.856366	0.905808
O14	O	1.185493	-0.813808	0.717927
O15	O	1.457450	-0.745534	0.921863
O16	O	1.494520	-1.012325	0.628751
O17	O	1.352172	-1.008152	0.739048
C18	C	1.156205	-0.736891	0.650043
C19	C	1.041887	-0.720442	0.635563
C20	C	1.423359	-1.048363	0.683918
C21	C	1.423424	-1.165153	0.683952
C22	C	0.983014	-0.783992	0.691504
C23	C	0.864860	-0.766993	0.676540
C24	C	1.497609	-1.222171	0.626602
C25	C	1.497668	-1.331908	0.626642
C26	C	1.349348	-1.327596	0.741382
C27	C	1.349295	-1.217863	0.741348
C28	C	1.571738	-1.169461	0.569206
C29	C	1.645929	-1.226480	0.511852
C30	C	1.645988	-1.336216	0.511891
C31	C	1.571857	-1.388934	0.569286
C32	C	1.691674	-0.814074	0.717984
C33	C	1.805989	-0.830552	0.732489
C34	C	1.389401	-0.805212	0.952195
C35	C	1.374905	-0.817913	1.066506
C36	C	1.423501	-0.501392	0.684002
C37	C	1.423537	-0.384623	0.684026
C38	C	1.457361	-0.745651	0.416751
C39	C	1.472056	-0.732683	0.302465
C40	C	1.430967	-0.768738	1.125413
C41	C	1.415986	-0.781864	1.243560
H42	H	1.020083	-0.850982	0.750480
C43	C	1.295078	-0.887919	1.116525
C44	C	1.330318	-0.984970	1.196044
C45	C	1.250489	-1.054978	1.246060
C46	C	1.135420	-1.027935	1.216558
C47	C	1.100174	-0.930879	1.137035
C48	C	1.180003	-0.860871	1.087019
H49	H	1.415504	-1.004994	1.217887
H50	H	1.276581	-1.126825	1.304928
H51	H	1.076325	-1.079759	1.253582
H52	H	1.014988	-0.910856	1.115192
H53	H	1.153911	-0.789024	1.028151
C54	C	1.727473	-1.168497	0.448725
C55	C	1.727414	-1.047793	0.448677
C56	C	1.808962	-0.989814	0.385551
C57	C	1.890570	-1.052538	0.322474
C58	C	1.890632	-1.173249	0.322520
C59	C	1.809084	-1.231228	0.385646
H60	H	1.667000	-1.001355	0.495372
H61	H	1.808915	-0.900455	0.385517
H62	H	1.950936	-1.009618	0.275744
H63	H	1.951046	-1.219687	0.275824
H64	H	1.809131	-1.320586	0.385680
C65	C	1.727597	-1.398939	0.448809
C66	C	1.734111	-1.369724	0.330829
C67	C	1.815721	-1.432442	0.267741
C68	C	1.890818	-1.524375	0.322632
C69	C	1.884307	-1.553595	0.440618
C70	C	1.802697	-1.490877	0.503707
H71	H	1.678518	-1.301665	0.290190
H72	H	1.820541	-1.410811	0.180399
H73	H	1.951231	-1.570803	0.275930
H74	H	1.939900	-1.621654	0.481258
H75	H	1.797877	-1.512508	0.591048
H76	H	1.571696	-1.080107	0.569164
H77	H	1.571918	-1.478291	0.569323
C78	C	1.267804	-1.385581	0.804506
C79	C	1.267859	-1.506283	0.804542
C80	C	1.186310	-1.564266	0.867664
C81	C	1.104707	-1.501547	0.930750
C82	C	1.104649	-1.380839	0.930717
C83	C	1.186197	-1.322856	0.867595
H84	H	1.328269	-1.552717	0.757839
H85	H	1.186354	-1.653622	0.867688
H86	H	1.044340	-1.544469	0.977477
H87	H	1.044238	-1.334404	0.977419
H88	H	1.186154	-1.233499	0.867570
H89	H	1.490051	-0.716916	1.088378
C90	C	1.336155	-0.851874	1.293575
C91	C	1.221086	-0.824831	1.264072
C92	C	1.141257	-0.894839	1.314088
C93	C	1.176497	-0.991890	1.393607
C94	C	1.291572	-1.018938	1.423113
C95	C	1.371401	-0.948930	1.373097
H96	H	1.194994	-0.752984	1.205204
H97	H	1.056071	-0.874815	1.292245
H98	H	1.117403	-1.043714	1.430632
H99	H	1.317664	-1.090785	1.481981
H100	H	1.456587	-0.968953	1.394940
H101	H	1.531143	-0.680854	1.265436
H102	H	1.288887	-1.171438	0.788048
H103	H	0.827794	-0.699991	0.617568
H104	H	0.843052	-0.897545	0.791471
H105	H	1.004816	-0.653445	0.576595
