data_functionalizedCrystal
_audit_creation_method	'MofGen! by Chris Wilmer'
_symmetry_space_group_name_H-M	'P1'
_symmetry_Int_Tables_number	1
_symmetry_cell_setting	triclinic
loop_
_symmetry_equiv_pos_as_xyz
  x,y,z
_cell_length_a	10.654559
_cell_length_b	9.130313
_cell_length_c	10.654550
_cell_angle_alpha	89.995693
_cell_angle_beta	95.513206
_cell_angle_gamma	90.000951
loop_
_atom_site_label
_atom_site_type_symbol
_atom_site_fract_x
_atom_site_fract_y
_atom_site_fract_z
O1	O	1.667827	0.121803	-0.176456
O2	O	1.302350	0.121804	-0.193250
O3	O	1.493492	0.121798	-0.002114
O4	O	1.476686	0.121809	-0.367592
O5	O	1.493489	-0.121801	-0.002104
O6	O	1.302348	-0.121795	-0.193240
O7	O	1.667825	-0.121795	-0.176446
Cu8	Cu	1.485086	-0.144038	-0.184842
Cu9	Cu	1.485089	0.144046	-0.184854
O10	O	1.476683	-0.121790	-0.367582
C11	C	1.255551	0.000005	-0.192009
C12	C	1.116109	0.000005	-0.188313
C13	C	1.064569	-0.000002	-0.072301
C14	C	0.933547	0.000009	-0.068835
C15	C	0.905614	0.000028	-0.297404
C16	C	1.036634	0.000028	-0.300869
C17	C	1.080694	-0.000020	0.059662
C18	C	0.949672	-0.000009	0.063128
C19	C	1.492257	0.000001	0.044689
C20	C	1.488565	0.000006	0.184132
C21	C	1.714624	0.000007	-0.177686
C22	C	1.854067	0.000016	-0.181383
N23	N	1.485092	0.346669	-0.184853
N24	N	1.485093	-0.346660	-0.184833
C25	C	1.569889	0.423318	-0.100385
C26	C	1.569893	0.576655	-0.100377
C27	C	1.400292	0.576680	-0.269310
C28	C	1.400295	0.423346	-0.269323
C29	C	1.667802	0.423305	-0.002849
C30	C	1.667806	0.576642	-0.002841
C31	C	1.477919	0.000011	-0.414385
C32	C	1.481610	0.000016	-0.553828
C33	C	1.601106	0.000001	0.263614
C34	C	1.597629	0.000011	0.394635
C35	C	1.369061	0.000025	0.366679
C36	C	1.372539	0.000025	0.235661
C37	C	1.733068	-0.000013	0.279756
C38	C	1.729592	-0.000003	0.410777
H39	H	1.122443	0.101919	0.109388
H40	H	1.274596	0.000042	0.408651
Cl41	Cl	0.894653	0.162377	0.128006
H42	H	1.126335	-0.105203	0.099534
Cl43	Cl	0.904319	-0.157390	0.142818
Cl44	Cl	1.791164	0.162379	0.481248
Cl45	Cl	1.293709	0.326985	-0.375531
H46	H	1.078592	0.000058	-0.395337
Cl47	Cl	1.812756	0.157367	0.234409
Cl48	Cl	1.293697	0.673082	-0.375496
H49	H	1.764259	0.381704	-0.024548
H50	H	1.637457	0.375725	0.088432
H51	H	0.840891	0.000047	-0.389043
H52	H	1.779312	-0.101947	0.452539
Cl53	Cl	1.808471	0.650095	-0.050341
Cl54	Cl	1.634983	0.640874	0.146290
Cl55	Cl	1.231052	0.000068	0.135744
H56	H	1.775089	-0.105194	0.244132
