data_functionalizedCrystal
_audit_creation_method	'MofGen! by Chris Wilmer'
_symmetry_space_group_name_H-M	'P1'
_symmetry_Int_Tables_number	1
_symmetry_cell_setting	triclinic
loop_
_symmetry_equiv_pos_as_xyz
  x,y,z
_cell_length_a	19.902436
_cell_length_b	14.809374
_cell_length_c	14.809374
_cell_angle_alpha	57.530506
_cell_angle_beta	98.953497
_cell_angle_gamma	67.423257
loop_
_atom_site_label
_atom_site_type_symbol
_atom_site_fract_x
_atom_site_fract_y
_atom_site_fract_z
Zr1	Zr	0.702452	1.000463	-0.231325
O2	O	0.591413	1.191186	-0.398542
O3	O	0.727369	0.809754	-0.165334
O4	O	0.718441	1.000460	-0.377283
O5	O	0.617761	1.000477	-0.036159
O6	O	0.829020	1.000443	-0.377269
O7	O	0.600341	1.000479	-0.186593
O8	O	0.844991	0.659304	0.001869
O9	O	0.601791	1.341616	-0.415297
O10	O	0.831541	0.888177	-0.154975
O11	O	0.762017	0.888188	-0.042719
O12	O	0.751506	1.112720	-0.292261
O13	O	0.681982	1.112732	-0.180005
Zr14	Zr	0.906595	1.000430	0.008622
Zr15	Zr	0.878813	1.000435	-0.231302
Zr16	Zr	0.730234	1.000459	0.008600
Zr17	Zr	0.719003	1.240381	-0.258047
Zr18	Zr	0.890045	0.760512	0.035345
O19	O	0.881678	1.191139	-0.057368
O20	O	0.842176	1.191146	-0.398510
O21	O	0.630916	1.191180	-0.057400
O22	O	1.017634	0.809707	0.175840
O23	O	0.978132	0.809714	-0.165302
O24	O	0.766872	0.809748	0.175807
O25	O	0.991287	1.000417	-0.186543
O26	O	0.890606	1.000433	0.154581
O27	O	0.780027	1.000451	0.154566
O28	O	1.008706	1.000414	-0.036109
O29	O	0.741974	1.341593	-0.415279
O30	O	0.867074	0.659300	0.192577
O31	O	1.007257	0.659278	0.192595
O32	O	0.985174	0.659281	0.001887
O33	O	0.623874	1.341612	-0.224589
O34	O	0.764057	1.341590	-0.224571
O35	O	0.857541	0.888173	0.069559
O36	O	0.927065	0.888162	-0.042697
O37	O	0.847030	1.112705	-0.179984
O38	O	0.777506	1.112716	-0.067727
C39	C	0.783822	0.700346	-0.077925
C40	C	0.776796	0.598494	-0.066581
C41	C	0.808152	0.553080	-0.117210
C42	C	0.800891	0.447811	-0.105486
C43	C	0.583923	1.000482	-0.111379
C44	C	0.509054	1.000494	-0.111389
C45	C	0.237052	1.000430	-0.111339
C46	C	0.215094	1.142077	-0.197602
C47	C	0.292893	1.142166	-0.198003
C48	C	0.371995	1.000463	-0.111364
C49	C	0.358751	0.930120	-0.155173
C50	C	0.280526	0.931026	-0.155795
C51	C	0.301501	0.928113	0.018879
C52	C	0.378584	0.930775	0.018395
C53	C	0.448261	1.000474	-0.111376
C54	C	0.160787	1.000415	-0.111330
C55	C	1.025124	1.000411	-0.111323
C56	C	1.099994	1.000399	-0.111313
C57	C	0.769773	1.000452	-0.411460
C58	C	0.757978	1.000454	-0.513314
C59	C	0.825226	1.300548	-0.144777
C60	C	0.832252	1.402399	-0.156122
C61	C	0.810614	1.000446	-0.558717
C62	C	0.798426	1.000448	-0.663988
C63	C	0.839275	1.000441	0.188758
C64	C	0.851069	1.000439	0.290612
C65	C	1.004422	0.700310	-0.077897
C66	C	1.072266	0.598447	-0.066543
C67	C	0.818573	0.700340	0.222184
C68	C	0.823341	0.598487	0.335382
C69	C	1.039173	0.700305	0.222212
C70	C	1.118811	0.598439	0.335420
C71	C	0.569874	1.300589	-0.444914
C72	C	0.490236	1.402454	-0.558123
C73	C	0.604625	1.300583	-0.144806
C74	C	0.536781	1.402447	-0.156160
C75	C	0.790474	1.300553	-0.444886
C76	C	0.785706	1.402407	-0.558085
C77	C	1.054263	0.550618	-0.119828
C78	C	1.118001	0.454920	-0.109184
C79	C	1.199742	0.407045	-0.045246
C80	C	1.217744	0.454883	0.008041
C81	C	1.154007	0.550586	-0.002612
C82	C	1.192508	0.550596	0.329988
C83	C	1.267343	0.454896	0.436348
C84	C	1.268479	0.407034	0.548141
C85	C	1.194774	0.454887	0.553571
C86	C	1.119941	0.550591	0.447211
C87	C	0.416540	1.450309	-0.552691
C88	C	0.341707	1.546038	-0.659055
C89	C	0.340572	1.593905	-0.770848
C90	C	0.414276	1.546047	-0.776277
C91	C	0.489108	1.450325	-0.669915
C92	C	0.554784	1.450285	-0.102885
C93	C	0.491045	1.546010	-0.113559
C94	C	0.409304	1.593888	-0.177501
C95	C	0.391301	1.546046	-0.230782
C96	C	0.455040	1.450329	-0.220115
C97	C	0.770370	0.633542	0.379304
C98	C	0.774834	0.537853	0.485656
C99	C	0.832273	0.407110	0.548088
C100	C	0.885246	0.372055	0.504158
C101	C	0.880778	0.467743	0.397804
C102	C	0.728262	1.533134	-0.620485
C103	C	0.723781	1.628849	-0.726840
C104	C	0.776741	1.593835	-0.770796
C105	C	0.834191	1.463095	-0.708386
C106	C	0.838675	1.367382	-0.602029
H107	H	0.299421	1.197637	-0.169810
H108	H	0.905163	1.000424	-0.670323
H109	H	0.703893	1.000456	-0.552374
H110	H	0.864705	1.000430	-0.519649
H111	H	0.685131	1.561668	-0.584714
H112	H	0.773078	1.671783	-0.857403
C113	C	1.307661	0.402201	0.078379
H114	H	1.343036	0.338343	0.077098
H115	H	1.315238	0.470883	0.041808
H116	H	1.320187	0.364842	0.159648
C117	C	0.892462	1.424589	-0.756720
H118	H	0.927331	1.333023	-0.704318
H119	H	0.861123	1.458490	-0.835330
H120	H	0.924899	1.458487	-0.760306
C121	C	0.725352	1.000462	-0.716751
H122	H	0.726743	1.000471	-0.780589
H123	H	0.728840	0.925485	-0.655271
H124	H	0.675388	1.075462	-0.746967
H125	H	0.885451	1.260939	-0.551233
H126	H	0.414036	0.825931	-0.094699
C127	C	0.707182	0.777350	0.310639
H128	H	0.712104	0.829332	0.241008
H129	H	0.653336	0.795723	0.286777
H130	H	0.717133	0.795717	0.361773
H131	H	0.987709	0.589597	-0.171907
C132	C	0.435231	1.397699	-0.278704
H133	H	0.484893	1.333839	-0.263206
H134	H	0.406773	1.360384	-0.245603
H135	H	0.401812	1.466413	-0.363465
H136	H	1.103327	0.415982	-0.152578
H137	H	1.251633	0.329116	-0.036580
C138	C	0.851687	0.605816	-0.187485
H139	H	0.870424	0.563665	-0.217720
H140	H	0.814301	0.696179	-0.252975
H141	H	0.897210	0.590111	-0.135100
C142	C	0.757359	0.395068	-0.035202
H143	H	0.758184	0.331242	-0.036549
H144	H	0.784969	0.357687	0.046077
H145	H	0.702057	0.463743	-0.071794
H146	H	1.168678	0.589515	0.040789
C147	C	1.191276	0.603231	0.207029
H148	H	1.245891	0.561030	0.219043
H149	H	1.159942	0.587548	0.169000
H150	H	1.167250	0.693592	0.157196
C151	C	0.716568	0.576428	0.533971
H152	H	0.727442	0.500723	0.606246
H153	H	0.725060	0.626157	0.550238
H154	H	0.661250	0.626188	0.475234
C155	C	1.350798	0.301751	0.665128
H156	H	1.394523	0.280109	0.645871
H157	H	1.357991	0.333103	0.704940
H158	H	1.350670	0.227071	0.716736
H159	H	0.835902	0.329208	0.634687
C160	C	0.326942	0.787155	0.105864
H161	H	0.298448	0.772394	0.063097
H162	H	0.384446	0.730291	0.138726
H163	H	0.313607	0.771831	0.169420
H164	H	0.281702	1.584989	-0.654611
H165	H	1.327349	0.415945	0.431906
H166	H	0.932013	0.265593	0.555008
C167	C	1.196033	0.402218	0.676548
H168	H	1.251158	0.338357	0.739106
H169	H	1.172518	0.470905	0.677313
H170	H	1.165210	0.364867	0.689104
C171	C	0.152337	1.216810	-0.326937
H172	H	0.139461	1.162063	-0.328594
H173	H	0.103756	1.290041	-0.351755
H174	H	0.175091	1.244409	-0.380255
C175	C	1.038879	0.603194	0.453203
H176	H	1.050280	0.560966	0.535020
H177	H	1.011822	0.693550	0.408244
H178	H	1.004530	0.587489	0.420065
C179	C	0.875784	0.455136	-0.226408
H180	H	0.894520	0.412985	-0.256644
H181	H	0.838395	0.545498	-0.291898
H182	H	0.921309	0.439435	-0.174029
H183	H	0.744577	0.559438	-0.014553
C184	C	0.172742	1.217196	-0.159429
H185	H	0.168065	1.162854	-0.090546
H186	H	0.204478	1.244325	-0.140267
H187	H	0.119539	1.290748	-0.223926
H188	H	0.284514	1.197691	-0.294301
C189	C	0.417773	1.397686	-0.429734
H190	H	0.363160	1.439921	-0.441752
H191	H	0.441791	1.307332	-0.379888
H192	H	0.449116	1.413376	-0.391719
C193	C	0.939056	0.429174	0.349505
H194	H	0.928173	0.504877	0.277219
H195	H	0.994367	0.379421	0.408243
H196	H	0.930569	0.379437	0.333237
H197	H	0.676996	1.735297	-0.777643
H198	H	0.237022	0.981016	-0.251259
H199	H	0.353362	0.978976	-0.249655
C200	C	0.304482	0.790641	-0.075296
H201	H	0.361935	0.733310	-0.042367
H202	H	0.290669	0.771997	-0.011545
H203	H	0.275631	0.780005	-0.122333
C204	C	0.258255	1.699191	-0.887839
H205	H	0.268128	1.720857	-0.955204
H206	H	0.224268	1.667823	-0.884343
H207	H	0.231589	1.773861	-0.896152
C208	C	0.413016	1.598699	-0.899253
H209	H	0.357890	1.662547	-0.961810
H210	H	0.443846	1.636032	-0.911824
H211	H	0.436521	1.529990	-0.899998
H212	H	0.273311	0.973439	0.056972
C213	C	0.510857	1.598623	-0.054947
H214	H	0.461194	1.662500	-0.070467
H215	H	0.544272	1.529913	0.029807
H216	H	0.539319	1.635940	-0.088048
C217	C	0.388905	1.000042	0.062813
H218	H	0.389202	1.071132	0.002542
H219	H	0.344604	1.030384	0.078360
H220	H	0.439294	0.941339	0.134935
C221	C	0.644692	1.397635	-0.032545
H222	H	0.646274	1.439854	-0.002360
H223	H	0.674115	1.307280	0.032984
H224	H	0.669151	1.413319	-0.084877
H225	H	0.435506	0.827395	0.086848
H226	H	0.549111	1.411363	-0.674351
H227	H	0.357412	1.671826	-0.186177
C228	C	0.301386	1.598712	-0.301103
H229	H	0.266012	1.662555	-0.299806
H230	H	0.288846	1.636054	-0.382366
H231	H	0.293824	1.530008	-0.264495
