data_functionalizedCrystal
_audit_creation_method	'MofGen! by Chris Wilmer'
_symmetry_space_group_name_H-M	'P1'
_symmetry_Int_Tables_number	1
_symmetry_cell_setting	triclinic
loop_
_symmetry_equiv_pos_as_xyz
  x,y,z
_cell_length_a	12.376774
_cell_length_b	14.971487
_cell_length_c	14.971486
_cell_angle_alpha	96.385734
_cell_angle_beta	102.660545
_cell_angle_gamma	77.356619
loop_
_atom_site_label
_atom_site_type_symbol
_atom_site_fract_x
_atom_site_fract_y
_atom_site_fract_z
O1	O	0.093840	-1.202225	0.131862
O2	O	0.093877	-0.941831	0.145827
O3	O	0.093849	-1.079006	0.008643
O4	O	0.093868	-1.065050	0.269046
O5	O	-0.094152	-1.048380	-0.022007
O6	O	-0.094124	-0.911205	0.115176
O7	O	-0.094162	-1.171599	0.101212
Zn8	Zn	-0.123993	-1.036540	0.103328
Zn9	Zn	0.123708	-1.076891	0.143711
O10	O	-0.094134	-1.034424	0.238396
C11	C	-0.000119	-0.893194	0.129878
C12	C	-0.000105	-0.793900	0.128009
N13	N	-0.293042	-1.009007	0.075767
C14	C	-0.000151	-1.063069	-0.040007
C15	C	-0.000150	-1.061198	-0.139304
C16	C	-0.352204	-0.945069	0.011777
C17	C	-0.470538	-0.925787	-0.007513
C18	C	-0.529720	-0.970446	0.037179
C19	C	-0.470557	-1.034391	0.101166
C20	C	-0.352212	-1.053670	0.120463
C21	C	-0.529728	-1.079047	0.145866
C22	C	-0.470565	-1.142991	0.209852
C23	C	-0.352232	-1.162267	0.229146
C24	C	-0.293050	-1.117608	0.184453
C25	C	-0.648073	-1.059768	0.126568
C26	C	-0.648081	-1.168368	0.235255
C27	C	-0.529747	-1.187651	0.254545
N28	N	0.292757	-1.104430	0.171265
C29	C	-0.000099	-0.736675	0.208599
C30	C	-0.000114	-0.643373	0.206834
C31	C	-0.000125	-0.607299	0.124478
C32	C	-0.000134	-0.664530	0.043882
C33	C	-0.000128	-0.757829	0.045647
C34	C	-0.000145	-0.470066	0.040208
C35	C	-0.000149	-0.376761	0.038443
C36	C	-0.000131	-0.355611	0.201395
C37	C	-0.000124	-0.448909	0.203160
C38	C	-0.000131	-0.506134	0.122563
C39	C	-0.000157	-0.220238	0.117162
C40	C	-0.000144	-0.319537	0.119033
C41	C	-0.000162	-1.141786	-0.196531
C42	C	-0.000151	-1.140024	-0.289829
C43	C	-0.000135	-1.057674	-0.325898
C44	C	-0.000119	-0.977081	-0.268663
C45	C	-0.000122	-0.978844	-0.175366
C46	C	-0.000114	-0.973411	-0.463125
C47	C	-0.000113	-0.971646	-0.556429
C48	C	-0.000143	-1.134591	-0.577587
C49	C	-0.000146	-1.136354	-0.484290
C50	C	-0.000132	-1.055760	-0.427062
C51	C	-0.000131	-1.050362	0.287046
C52	C	-0.000125	-1.052234	0.386344
H53	H	-0.696231	-1.007703	0.074471
O54	O	0.000024	-0.299962	0.279655
C55	C	0.097402	-0.261228	0.299392
H56	H	0.129847	-0.261712	0.233677
H57	H	0.075505	-0.187580	0.329070
H58	H	0.165595	-0.303066	0.351386
H59	H	-0.000118	-0.904586	-0.585797
O60	O	0.000073	-0.813417	-0.032628
C61	C	0.097421	-0.812888	-0.066764
H62	H	0.165479	-0.792128	-0.008484
H63	H	0.130104	-0.884364	-0.097230
H64	H	0.075400	-0.761746	-0.122180
O65	O	-0.294630	-1.224443	0.291203
C66	C	-0.226204	-1.296580	0.247925
H67	H	-0.208479	-1.271573	0.184396
H68	H	-0.142986	-1.320124	0.297469
H69	H	-0.271812	-1.356373	0.226916
H70	H	-0.518700	-0.873723	-0.059611
H71	H	-0.000160	-0.347393	-0.028618
H72	H	-0.000112	-0.913222	-0.128772
H73	H	-0.696266	-1.204730	0.271651
O74	O	-0.000377	-1.221728	-0.161487
C75	C	-0.097732	-1.211761	-0.124013
H76	H	-0.165782	-1.153911	-0.157222
H77	H	-0.130422	-1.278515	-0.137646
H78	H	-0.075718	-1.194798	-0.046872
H79	H	-0.000163	-1.205646	-0.336420
O80	O	-0.178097	-1.136317	0.203361
C81	C	-0.138554	-1.114787	0.297300
H82	H	-0.206746	-1.116143	0.337149
H83	H	-0.059383	-1.167353	0.323951
H84	H	-0.117559	-1.043458	0.306764
H85	H	-0.000104	-0.478279	0.270223
H86	H	-0.626072	-0.954743	0.021469
H87	H	-0.000167	-1.203410	-0.454927
H88	H	-0.000089	-0.766039	0.275663
H89	H	-0.000152	-0.516657	-0.025423
O90	O	-0.000344	-0.629503	-0.036175
C91	C	-0.097699	-0.642906	-0.101191
H92	H	-0.165752	-0.651282	-0.064131
H93	H	-0.130383	-0.581029	-0.144639
H94	H	-0.075688	-0.707243	-0.147377
O95	O	-0.000200	-1.212957	-0.633054
C96	C	-0.000195	-1.286022	-0.581208
H97	H	-0.035788	-1.257593	-0.517407
H98	H	-0.054789	-1.333598	-0.624468
H99	H	0.089992	-1.325958	-0.559827
O100	O	-0.000148	-0.895032	-0.407668
C101	C	-0.000107	-0.821972	-0.459503
H102	H	-0.035702	-0.838800	-0.534916
H103	H	-0.054681	-0.756610	-0.434047
H104	H	0.090091	-0.811428	-0.451462
O105	O	0.000048	-0.897165	-0.303781
C106	C	0.097431	-0.907125	-0.341218
H107	H	0.129881	-0.982886	-0.359087
H108	H	0.075537	-0.867838	-0.405918
H109	H	0.165618	-0.878707	-0.288922
H110	H	-0.481560	-1.239715	0.306644
O111	O	-0.294541	-0.901807	-0.031581
C112	C	-0.177408	-0.932518	-0.000809
H113	H	-0.161262	-1.002916	0.027443
H114	H	-0.132429	-0.937532	-0.060519
H115	H	-0.143816	-0.881942	0.055531
H116	H	-0.000108	-0.596785	0.272458
