data_functionalizedCrystal
_audit_creation_method	'MofGen! by Chris Wilmer'
_symmetry_space_group_name_H-M	'P1'
_symmetry_Int_Tables_number	1
_symmetry_cell_setting	triclinic
loop_
_symmetry_equiv_pos_as_xyz
  x,y,z
_cell_length_a	10.654555
_cell_length_b	10.654550
_cell_length_c	9.730223
_cell_angle_alpha	90.004131
_cell_angle_beta	89.998904
_cell_angle_gamma	95.513922
loop_
_atom_site_label
_atom_site_type_symbol
_atom_site_fract_x
_atom_site_fract_y
_atom_site_fract_z
O1	O	1.667830	-0.176435	-0.114300
O2	O	1.302352	-0.193233	-0.114300
O3	O	1.493494	-0.002095	-0.114295
O4	O	1.476688	-0.367573	-0.114305
O5	O	1.493492	-0.002085	0.114285
O6	O	1.302350	-0.193224	0.114280
O7	O	1.667827	-0.176425	0.114280
Zn8	Zn	1.485088	-0.184823	0.150572
Zn9	Zn	1.485091	-0.184836	-0.150592
O10	O	1.476686	-0.367564	0.114275
C11	C	1.492259	0.044708	-0.000006
C12	C	1.488567	0.184151	-0.000011
C13	C	1.255553	-0.191994	-0.000009
C14	C	1.116110	-0.188299	-0.000009
C15	C	1.714627	-0.177665	-0.000013
C16	C	1.854069	-0.181360	-0.000023
C17	C	1.919581	-0.183105	-0.124619
C18	C	2.050604	-0.186570	-0.124613
C19	C	2.050590	-0.186549	0.124597
C20	C	1.919571	-0.183075	0.124590
C21	C	1.854080	-0.181390	-0.249232
C22	C	1.919592	-0.183137	-0.373838
C23	C	2.050614	-0.186602	-0.373832
C24	C	2.116124	-0.188320	-0.249220
N25	N	1.485094	-0.184835	-0.356128
C26	C	1.477921	-0.414366	-0.000016
C27	C	1.481613	-0.553810	-0.000021
C28	C	1.601108	0.263635	-0.000007
C29	C	1.597632	0.394655	-0.000017
C30	C	1.369063	0.366697	-0.000029
C31	C	1.372541	0.235678	-0.000029
C32	C	1.717135	0.212107	0.000010
C33	C	1.829685	0.291592	0.000016
C34	C	1.826209	0.422613	0.000006
C35	C	1.710182	0.474149	-0.000009
C36	C	1.569891	-0.100365	-0.428052
C37	C	1.569895	-0.100357	-0.571935
C38	C	1.400294	-0.269292	-0.571957
C39	C	1.400298	-0.269306	-0.428077
C40	C	1.654688	-0.015895	-0.356103
C41	C	1.739491	0.068583	-0.428027
C42	C	1.739494	0.068591	-0.571910
C43	C	1.654696	-0.015878	-0.643869
N44	N	1.485095	-0.184814	0.356108
H45	H	1.747395	-0.178572	-0.249250
F46	F	1.245588	0.421550	-0.000043
F47	F	1.849873	-0.181284	-0.506452
H48	H	2.222812	-0.191135	-0.249225
F49	F	2.120335	-0.188447	-0.506447
H50	H	1.808552	0.137367	-0.630470
F51	F	2.120314	-0.188383	0.257209
F52	F	1.849846	-0.181202	0.257200
H53	H	1.924150	0.249622	-0.000006
H54	H	1.917853	0.487326	-0.000003
F55	F	1.654716	-0.015873	-0.797004
H56	H	1.707360	0.580836	-0.000031
F57	F	1.720844	0.072665	0.000025
H58	H	1.280900	0.170960	-0.000030
F59	F	1.654686	-0.015893	-0.202971
H60	H	1.808538	0.137349	-0.369431
H61	H	1.331254	-0.338063	-0.630556
F62	F	1.310049	-0.359212	-0.351529
