data_functionalizedCrystal
_audit_creation_method	'MofGen! by Chris Wilmer'
_symmetry_space_group_name_H-M	'P1'
_symmetry_Int_Tables_number	1
_symmetry_cell_setting	triclinic
loop_
_symmetry_equiv_pos_as_xyz
  x,y,z
_cell_length_a	10.654549
_cell_length_b	14.519731
_cell_length_c	9.130313
_cell_angle_alpha	89.994496
_cell_angle_beta	89.997498
_cell_angle_gamma	84.086815
loop_
_atom_site_label
_atom_site_type_symbol
_atom_site_fract_x
_atom_site_fract_y
_atom_site_fract_z
O1	O	1.666608	0.129529	-0.121769
O2	O	1.301012	0.141871	-0.121780
O3	O	1.493489	0.001513	-0.121761
O4	O	1.474130	0.269887	-0.121788
O5	O	1.493476	0.001509	0.121838
O6	O	1.300999	0.141867	0.121819
O7	O	1.666595	0.129525	0.121830
Cu8	Cu	1.483795	0.135696	0.144067
Cu9	Cu	1.483811	0.135700	-0.144017
O10	O	1.474117	0.269883	0.121811
C11	C	1.254216	0.140963	0.000018
C12	C	1.114798	0.138252	0.000015
C13	C	0.903522	0.218338	0.000012
C14	C	1.034518	0.220892	0.000003
C15	C	1.064076	0.053051	0.000020
C16	C	0.933082	0.050498	0.000019
C17	C	1.492575	-0.032853	0.000039
C18	C	1.489857	-0.135247	0.000040
C19	C	1.487649	-0.218403	0.000036
C20	C	1.484889	-0.322726	0.000025
C21	C	1.482699	-0.405876	0.000015
C22	C	1.479939	-0.510206	0.000007
C23	C	1.713391	0.130433	0.000028
C24	C	1.852808	0.133144	0.000022
C25	C	1.475031	0.304249	0.000008
C26	C	1.477749	0.406643	-0.000003
N27	N	1.483794	0.135692	0.346689
N28	N	1.483823	0.135697	-0.346640
C29	C	1.569051	0.073568	0.423350
C30	C	1.569063	0.073568	0.576686
C31	C	1.398556	0.197824	0.576689
C32	C	1.398539	0.197819	0.423355
H33	H	1.129451	-0.014236	0.000020
N34	N	1.656126	0.010095	0.655001
N35	N	1.616145	-0.047426	0.740562
H36	H	1.677630	-0.092264	0.795868
N37	N	1.311483	0.261275	0.655027
N38	N	1.311508	0.261273	0.791931
H39	H	1.250012	0.306088	0.847258
H40	H	1.638469	0.022979	0.360932
N41	N	1.311446	0.261295	0.345064
N42	N	1.313358	0.346552	0.362165
H43	H	1.251848	0.391379	0.306874
N44	N	0.821541	0.302763	0.000019
N45	N	0.866845	0.378823	0.000010
H46	H	0.808950	0.438452	0.000012
H47	H	1.075802	0.290265	-0.000006
N48	N	0.881292	-0.036538	0.000014
N49	N	0.952975	-0.110321	0.000018
H50	H	0.916399	-0.171789	0.000009
