data_functionalizedCrystal
_audit_creation_method	'MofGen! by Chris Wilmer'
_symmetry_space_group_name_H-M	'P1'
_symmetry_Int_Tables_number	1
_symmetry_cell_setting	triclinic
loop_
_symmetry_equiv_pos_as_xyz
  x,y,z
_cell_length_a	12.759401
_cell_length_b	25.639240
_cell_length_c	12.759393
_cell_angle_alpha	89.956840
_cell_angle_beta	89.980198
_cell_angle_gamma	90.031844
loop_
_atom_site_label
_atom_site_type_symbol
_atom_site_fract_x
_atom_site_fract_y
_atom_site_fract_z
Zn1	Zn	1.606134	-0.208138	-0.593896
Zn2	Zn	1.605970	-0.295583	-0.418177
Zn3	Zn	1.430433	-0.208162	-0.418234
Zn4	Zn	1.430370	-0.295543	-0.593818
O5	O	1.518227	-0.251857	-0.506031
O6	O	1.753134	-0.219745	-0.570595
O7	O	1.582643	-0.284014	-0.271163
O8	O	1.453836	-0.134994	-0.441593
O9	O	1.753013	-0.283990	-0.441495
O10	O	1.582923	-0.134976	-0.570651
O11	O	1.453676	-0.219786	-0.271206
O12	O	1.283404	-0.219747	-0.441517
O13	O	1.453728	-0.283922	-0.740849
O14	O	1.283357	-0.283945	-0.570518
O15	O	1.582861	-0.219706	-0.740907
O16	O	1.582581	-0.368743	-0.441419
O17	O	1.453568	-0.368714	-0.570462
C18	C	1.245260	-0.251845	-0.506016
C19	C	1.128483	-0.251852	-0.506034
C20	C	1.518078	-0.387699	-0.505949
C21	C	1.518111	-0.445813	-0.505949
C22	C	0.963947	-0.218472	-0.573367
C23	C	1.073671	-0.218462	-0.573360
C24	C	1.073565	-0.285259	-0.438718
C25	C	0.963843	-0.285271	-0.438731
C26	C	1.585476	-0.806129	-0.573353
C27	C	1.585507	-0.860733	-0.573374
O28	O	1.642606	-0.888929	-0.630599
N29	N	1.518373	-0.888096	-0.506133
C30	C	1.451196	-0.860851	-0.438873
O31	O	1.394095	-0.889140	-0.381682
C32	C	1.451160	-0.806248	-0.438858
C33	C	1.518306	-0.778888	-0.506096
C34	C	1.652616	-0.778769	-0.640586
C35	C	1.652586	-0.724168	-0.640563
C36	C	1.585416	-0.696928	-0.573307
C37	C	1.518276	-0.724288	-0.506073
C38	C	1.383979	-0.779005	-0.371604
C39	C	1.383948	-0.724398	-0.371596
C40	C	1.451094	-0.697038	-0.438834
C41	C	1.451077	-0.642447	-0.438794
N42	N	1.518211	-0.615084	-0.506035
C43	C	1.585381	-0.642324	-0.573292
C44	C	1.451274	-0.975522	-0.438912
C45	C	1.451314	-1.030124	-0.438921
C46	C	1.585624	-1.030002	-0.573423
C47	C	1.585589	-0.975399	-0.573408
C48	C	1.518408	-0.948159	-0.506153
C49	C	1.585313	-0.527659	-0.573237
C50	C	1.585281	-0.473054	-0.573205
C51	C	1.450967	-0.473181	-0.438707
C52	C	1.451003	-0.527781	-0.438735
C53	C	1.518180	-0.555019	-0.506009
O54	O	1.394004	-0.614216	-0.381601
O55	O	1.642462	-0.614030	-0.630483
C56	C	1.792260	-0.251869	-0.506047
C57	C	1.909037	-0.251875	-0.506054
C58	C	1.518306	-0.251807	-0.780065
C59	C	1.518339	-0.251785	-0.896841
C60	C	1.518405	-0.115484	-0.506137
C61	C	1.518480	-0.057370	-0.506182
C62	C	1.585584	-0.218343	-0.951735
C63	C	1.585602	-0.218320	-1.061459
C64	C	1.451127	-0.285187	-1.061387
C65	C	1.451105	-0.285207	-0.951664
C66	C	1.518209	-0.251869	-0.233064
C67	C	1.518379	-0.251743	-0.116288
H68	H	0.919328	-0.191278	-0.628186
N69	N	1.129778	-0.184347	-0.642116
N70	N	1.191021	-0.202775	-0.708987
H71	H	1.230649	-0.178680	-0.757549
N72	N	1.315381	-0.806951	-0.302942
N73	N	1.315398	-0.855704	-0.302958
H74	H	1.266945	-0.875441	-0.254464
H75	H	1.640328	-0.191127	-0.907101
N76	N	1.654292	-0.184153	-1.117515
N77	N	1.714309	-0.154315	-1.068549
H78	H	1.762824	-0.130182	-1.108137
H79	H	1.396338	-0.312439	-0.906969
H80	H	1.118201	-0.312448	-0.383904
H81	H	1.396648	-1.052396	-0.384157
N82	N	1.315310	-0.696582	-0.302893
N83	N	1.255367	-0.721022	-0.242873
H84	H	1.206891	-0.701379	-0.194350
H85	H	1.396336	-0.550059	-0.383976
H86	H	1.396389	-0.312399	-1.106037
N87	N	1.654247	-1.057824	-0.642134
N88	N	1.751194	-1.051691	-0.635255
H89	H	1.799658	-1.071340	-0.683778
N90	N	1.653890	-0.445104	-0.641868
N91	N	1.720847	-0.414633	-0.604934
H92	H	1.769308	-0.394896	-0.653422
N93	N	1.653923	-0.555485	-0.641949
N94	N	1.616954	-0.585938	-0.708885
H95	H	1.665413	-0.605591	-0.757409
H96	H	0.919133	-0.312475	-0.383916
N97	N	1.721180	-0.696233	-0.709254
N98	N	1.781140	-0.720570	-0.769297
H99	H	1.829587	-0.700845	-0.817816
N100	N	1.721236	-0.806581	-0.709305
N101	N	1.781168	-0.782135	-0.769326
H102	H	1.829640	-0.801773	-0.817860
H103	H	1.640264	-0.953126	-0.628160
N104	N	1.382639	-0.947701	-0.370211
N105	N	1.285695	-0.953845	-0.377100
H106	H	1.237218	-0.934200	-0.328583
N107	N	1.382376	-0.445342	-0.370004
N108	N	1.382369	-0.396589	-0.370001
H109	H	1.333925	-0.376925	-0.321481
