data_functionalizedCrystal
_audit_creation_method	'MofGen! by Chris Wilmer'
_symmetry_space_group_name_H-M	'P1'
_symmetry_Int_Tables_number	1
_symmetry_cell_setting	triclinic
loop_
_symmetry_equiv_pos_as_xyz
  x,y,z
_cell_length_a	15.944551
_cell_length_b	16.992697
_cell_length_c	15.021413
_cell_angle_alpha	90.000840
_cell_angle_beta	89.995971
_cell_angle_gamma	87.083594
loop_
_atom_site_label
_atom_site_type_symbol
_atom_site_fract_x
_atom_site_fract_y
_atom_site_fract_z
O1	O	-0.178115	-1.040401	0.073887
O2	O	0.155218	-0.707068	0.407221
O3	O	0.488552	-0.373735	0.740554
O4	O	-0.176160	-0.812116	0.073918
O5	O	0.157173	-0.478783	0.407251
O6	O	0.490506	-0.145449	0.740584
O7	O	-0.055281	-0.932493	0.073907
O8	O	0.278052	-0.599159	0.407240
O9	O	0.611386	-0.265826	0.740573
O10	O	-0.298994	-0.920025	0.073898
O11	O	0.034339	-0.586692	0.407231
O12	O	0.367672	-0.253358	0.740565
O13	O	-0.055266	-0.932480	-0.074157
O14	O	0.278067	-0.599147	0.259176
O15	O	0.611400	-0.265813	0.592509
O16	O	-0.176146	-0.812103	-0.074147
O17	O	0.157188	-0.478770	0.259187
O18	O	0.490521	-0.145437	0.592520
O19	O	-0.178100	-1.040389	-0.074177
O20	O	0.155233	-0.707056	0.259156
O21	O	0.488566	-0.373722	0.592490
Zn22	Zn	-0.177121	-0.926244	-0.097670
Zn23	Zn	0.156213	-0.592911	0.235663
Zn24	Zn	0.489546	-0.259578	0.568997
Zn25	Zn	-0.177140	-0.926261	0.097411
Zn26	Zn	0.156193	-0.592927	0.430744
Zn27	Zn	0.489527	-0.259594	0.764077
O28	O	-0.298980	-0.920012	-0.074166
O29	O	0.034354	-0.586679	0.259167
O30	O	0.367687	-0.253346	0.592501
C31	C	-0.173639	-0.782897	-0.000111
C32	C	0.159694	-0.449564	0.333223
C33	C	0.493027	-0.116230	0.666556
C34	C	-0.166139	-0.695853	-0.000099
C35	C	0.167194	-0.362519	0.333235
C36	C	0.500527	-0.029186	0.666568
C37	C	-0.238504	-0.645616	-0.000101
C38	C	0.094829	-0.312283	0.333232
C39	C	0.428163	0.021051	0.666566
C40	C	-0.231452	-0.563829	-0.000112
C41	C	0.101882	-0.230496	0.333222
C42	C	0.435215	0.102838	0.666555
C43	C	-0.152034	-0.532280	-0.000114
C44	C	0.181299	-0.198947	0.333220
C45	C	0.514633	0.134386	0.666553
C46	C	-0.079664	-0.582523	-0.000114
C47	C	0.253670	-0.249190	0.333220
C48	C	0.587003	0.084143	0.666553
C49	C	-0.086717	-0.664309	-0.000109
C50	C	0.246617	-0.330975	0.333224
C51	C	0.579950	0.002358	0.666557
C52	C	-0.122802	-0.288681	-0.000132
C53	C	0.210531	0.044652	0.333201
C54	C	0.543864	0.377986	0.666534
C55	C	-0.115755	-0.206889	-0.000134
C56	C	0.217579	0.126444	0.333199
C57	C	0.550912	0.459777	0.666533
C58	C	-0.267543	-0.188200	-0.000134
C59	C	0.065790	0.145133	0.333200
C60	C	0.399123	0.478466	0.666533
C61	C	-0.274589	-0.269988	-0.000124
C62	C	0.058744	0.063345	0.333209
C63	C	0.392077	0.396678	0.666543
C64	C	-0.202219	-0.320224	-0.000129
C65	C	0.131114	0.013109	0.333205
C66	C	0.464447	0.346442	0.666538
N67	N	-0.144824	-0.448681	-0.000122
N68	N	0.188510	-0.115348	0.333212
N69	N	0.521843	0.217986	0.666545
N70	N	-0.209430	-0.403822	-0.000127
N71	N	0.123903	-0.070488	0.333206
N72	N	0.457236	0.262845	0.666540
C73	C	-0.330316	-0.920536	-0.000135
C74	C	0.003018	-0.587203	0.333198
C75	C	0.336351	-0.253869	0.666531
C76	C	-0.423666	-0.922088	-0.000139
C77	C	-0.090333	-0.588755	0.333194
C78	C	0.243001	-0.255421	0.666527
C79	C	-0.643776	-1.000412	-0.000136
C80	C	-0.310442	-0.667079	0.333197
C81	C	0.022891	-0.333745	0.666530
C82	C	-0.702345	-0.964035	-0.073136
C83	C	-0.369012	-0.630701	0.260198
C84	C	-0.035679	-0.297368	0.593531
C85	C	-0.594580	-0.924895	-0.000132
C86	C	-0.261247	-0.591562	0.333201
C87	C	0.072087	-0.258228	0.666535
C88	C	-0.702344	-0.964029	0.072844
C89	C	-0.369011	-0.630696	0.406177
C90	C	-0.035678	-0.297363	0.739511
C91	C	-0.759675	-0.927612	-0.000121
C92	C	-0.426342	-0.594279	0.333213
C93	C	-0.093008	-0.260946	0.666546
C94	C	-0.651920	-0.888497	-0.073192
C95	C	-0.318587	-0.555164	0.260142
C96	C	0.014747	-0.221830	0.593475
C97	C	-0.651913	-0.888502	0.072854
C98	C	-0.318580	-0.555169	0.406187
C99	C	0.014753	-0.221836	0.739520
C100	C	-0.710462	-0.852070	-0.000163
C101	C	-0.377128	-0.518737	0.333170
C102	C	-0.043795	-0.185403	0.666503
C103	C	-0.499473	-0.923332	-0.000139
C104	C	-0.166140	-0.589999	0.333194
C105	C	0.167194	-0.256665	0.666528
C106	C	-0.854781	-0.929170	-0.000120
C107	C	-0.521447	-0.595836	0.333213
C108	C	-0.188114	-0.262503	0.666547
C109	C	-0.023945	-0.931969	-0.000122
C110	C	0.309388	-0.598636	0.333211
C111	C	0.642722	-0.265302	0.666545
C112	C	0.069405	-0.930417	-0.000112
C113	C	0.402738	-0.597084	0.333221
C114	C	0.736072	-0.263750	0.666554
C115	C	-0.180621	-0.069608	-0.000143
C116	C	0.152713	0.263725	0.333191
C117	C	0.486046	0.597059	0.666524
C118	C	-0.188119	-0.156653	-0.000136
C119	C	0.145214	0.176681	0.333197
C120	C	0.478547	0.510014	0.666530
N121	N	-0.177147	-0.926273	0.230548
N122	N	0.156186	-0.592939	0.563882
N123	N	0.489519	-0.259606	0.897215
C124	C	-0.121343	-0.982045	0.470197
C125	C	0.211991	-0.648712	0.803531
C126	C	0.545324	-0.315379	1.136864
C127	C	-0.198304	-0.997086	0.529560
C128	C	0.135029	-0.663753	0.862894
C129	C	0.468362	-0.330420	1.196227
C130	C	-0.177136	-0.926262	0.412155
C131	C	0.156198	-0.592928	0.745489
C132	C	0.489531	-0.259595	1.078822
C133	C	-0.100165	-0.911247	0.529534
C134	C	0.233168	-0.577913	0.862868
C135	C	0.566502	-0.244580	1.196201
C136	C	-0.177118	-0.926253	0.587579
C137	C	0.156215	-0.592920	0.920913
C138	C	0.489549	-0.259586	1.254246
C139	C	-0.254138	-0.941338	0.470212
C140	C	0.079195	-0.608004	0.803545
C141	C	0.412528	-0.274671	1.136878
C142	C	-0.155947	-0.855467	0.470181
C143	C	0.177386	-0.522134	0.803514
C144	C	0.510720	-0.188801	1.136847
C145	C	-0.232961	-0.870478	0.529517
C146	C	0.100372	-0.537145	0.862850
C147	C	0.433705	-0.203812	1.196183
C148	C	-0.177145	-0.926269	0.311098
C149	C	0.156188	-0.592935	0.644431
C150	C	0.489522	-0.259602	0.977765
C151	C	-0.177117	-0.926245	0.688635
C152	C	0.156216	-0.592912	1.021968
C153	C	0.489549	-0.259578	1.355301
N154	N	-0.177108	-0.926239	0.769192
N155	N	0.156226	-0.592906	1.102526
N156	N	0.489559	-0.259573	1.435859
H157	H	-0.303174	-0.671296	-0.000099
H158	H	0.030159	-0.337963	0.333234
H159	H	0.363492	-0.004629	0.666568
Cl160	Cl	-0.598840	-1.097187	-0.000257
Cl161	Cl	-0.265507	-0.763854	0.333077
Cl162	Cl	0.067827	-0.430521	0.666410
Cl163	Cl	-0.354655	-0.961053	0.430154
Cl164	Cl	-0.021322	-0.627720	0.763487
Cl165	Cl	0.312012	-0.294387	1.096821
H166	H	-0.724583	-0.995989	0.134556
H167	H	-0.391250	-0.662656	0.467889
H168	H	-0.057917	-0.329323	0.801222
H169	H	-0.216224	-1.056951	0.555643
H170	H	0.117110	-0.723618	0.888976
H171	H	0.450443	-0.390285	1.222309
H172	H	-0.280191	-0.823297	0.555398
H173	H	0.053142	-0.489964	0.888731
H174	H	0.386476	-0.156630	1.222065
H175	H	-0.074227	-1.029254	0.444153
H176	H	0.259106	-0.695921	0.777486
H177	H	0.592440	-0.362587	1.110819
H178	H	-0.138005	-0.795621	0.444079
H179	H	0.195328	-0.462288	0.777412
H180	H	0.528662	-0.128954	1.110745
H181	H	-0.290379	-0.522929	-0.000113
H182	H	0.042954	-0.189596	0.333221
H183	H	0.376287	0.143738	0.666554
H184	H	-0.339260	-0.295669	-0.000112
H185	H	-0.005926	0.037665	0.333221
H186	H	0.327407	0.370998	0.666555
Cl187	Cl	-0.358517	-0.125043	-0.000131
Cl188	Cl	-0.025184	0.208290	0.333202
Cl189	Cl	0.308150	0.541624	0.666536
Cl190	Cl	-0.617536	-0.839238	0.168156
Cl191	Cl	-0.284202	-0.505905	0.501489
Cl192	Cl	0.049131	-0.172572	0.834823
H193	H	-0.027789	-0.705211	-0.000107
H194	H	0.305544	-0.371878	0.333227
H195	H	0.638877	-0.038545	0.666560
H196	H	-0.035080	-0.898550	0.555593
H197	H	0.298254	-0.565217	0.888927
H198	H	0.631587	-0.231883	1.222260
H199	H	-0.051080	-0.181206	-0.000134
H200	H	0.282253	0.152127	0.333199
H201	H	0.615587	0.485460	0.666532
H202	H	-0.629782	-0.856576	-0.134973
H203	H	-0.296449	-0.523243	0.198360
H204	H	0.036884	-0.189909	0.531693
H205	H	-0.724588	-0.995970	-0.134860
H206	H	-0.391255	-0.662637	0.198474
H207	H	-0.057922	-0.329303	0.531807
Cl208	Cl	-0.031821	-0.351824	-0.000137
Cl209	Cl	0.301512	-0.018491	0.333196
Cl210	Cl	0.634845	0.314842	0.666529
Cl211	Cl	-0.755154	-0.755207	-0.000204
Cl212	Cl	-0.421821	-0.421873	0.333129
Cl213	Cl	-0.088488	-0.088540	0.666463
H214	H	-0.015000	-0.556830	-0.000128
H215	H	0.318333	-0.223497	0.333205
H216	H	0.651667	0.109837	0.666539
