data_functionalizedCrystal
_audit_creation_method	'MofGen! by Chris Wilmer'
_symmetry_space_group_name_H-M	'P1'
_symmetry_Int_Tables_number	1
_symmetry_cell_setting	triclinic
loop_
_symmetry_equiv_pos_as_xyz
  x,y,z
_cell_length_a	12.759401
_cell_length_b	21.295417
_cell_length_c	12.759393
_cell_angle_alpha	89.960830
_cell_angle_beta	89.981504
_cell_angle_gamma	90.030668
loop_
_atom_site_label
_atom_site_type_symbol
_atom_site_fract_x
_atom_site_fract_y
_atom_site_fract_z
Zn1	Zn	1.606140	-0.250569	-0.593926
Zn2	Zn	2.106140	0.249431	-0.093926
Zn3	Zn	1.605986	-0.355853	-0.418223
Zn4	Zn	2.105986	0.144147	0.081777
Zn5	Zn	1.430442	-0.250602	-0.418265
Zn6	Zn	1.930442	0.249398	0.081735
Zn7	Zn	1.430382	-0.355805	-0.593864
Zn8	Zn	1.930382	0.144195	-0.093864
O9	O	1.518237	-0.303208	-0.506069
O10	O	2.018237	0.196792	-0.006069
O11	O	1.753141	-0.264542	-0.570626
O12	O	2.253141	0.235458	-0.070626
O13	O	1.582660	-0.341926	-0.271207
O14	O	2.082660	0.158074	0.228793
O15	O	1.453838	-0.162509	-0.441611
O16	O	1.953838	0.337491	0.058389
O17	O	1.753027	-0.341894	-0.441538
O18	O	2.253027	0.158106	0.058462
O19	O	1.582923	-0.162484	-0.570668
O20	O	2.082923	0.337516	-0.070668
O21	O	1.453689	-0.264598	-0.271238
O22	O	1.953689	0.235402	0.228762
O23	O	1.283413	-0.264551	-0.441551
O24	O	1.783413	0.235449	0.058449
O25	O	1.453736	-0.341811	-0.740893
O26	O	1.953736	0.158189	-0.240893
O27	O	1.283369	-0.341843	-0.570562
O28	O	1.783369	0.158157	-0.070562
O29	O	1.582865	-0.264495	-0.740939
O30	O	2.082865	0.235505	-0.240939
O31	O	1.582602	-0.443936	-0.441478
O32	O	2.082602	0.056064	0.058522
O33	O	1.453587	-0.443901	-0.570521
O34	O	1.953587	0.056099	-0.070521
C35	C	1.245270	-0.303196	-0.506055
C36	C	1.745270	0.196804	-0.006055
C37	C	1.128493	-0.303206	-0.506074
C38	C	1.628493	0.196794	-0.006074
C39	C	1.073636	-0.343516	-0.573139
C40	C	1.573636	0.156484	-0.073139
C41	C	0.963912	-0.343524	-0.573151
C42	C	1.463912	0.156476	-0.073151
C43	C	0.963912	-0.262910	-0.439022
C44	C	1.463912	0.237090	0.060978
C45	C	1.073635	-0.262899	-0.439017
C46	C	1.573635	0.237101	0.060983
C47	C	1.073635	-0.390061	-0.650574
C48	C	1.573635	0.109939	-0.150574
C49	C	0.963911	-0.390069	-0.650585
C50	C	1.463911	0.109931	-0.150585
C51	C	1.518100	-0.466759	-0.506011
C52	C	2.018100	0.033241	-0.006011
C53	C	1.518137	-0.536727	-0.506021
C54	C	2.018137	-0.036727	-0.006021
C55	C	1.585375	-0.569592	-0.438898
C56	C	2.085375	-0.069592	0.061102
C57	C	1.585424	-0.635334	-0.438921
C58	C	2.085424	-0.135334	0.061079
C59	C	1.518217	-0.668210	-0.506058
C60	C	2.018217	-0.168210	-0.006058
C61	C	1.450974	-0.635338	-0.573195
C62	C	1.950974	-0.135338	-0.073195
C63	C	1.450934	-0.569596	-0.573177
C64	C	1.950934	-0.069596	-0.073177
N65	N	1.426309	-0.771475	-0.514062
N66	N	1.926309	-0.271475	-0.014062
N67	N	1.426350	-0.833927	-0.514073
N68	N	1.926350	-0.333927	-0.014073
C69	C	1.518334	-0.866284	-0.506118
C70	C	2.018334	-0.366284	-0.006118
N71	N	1.610278	-0.833832	-0.498130
N72	N	2.110278	-0.333832	0.001870
N73	N	1.610236	-0.771375	-0.498114
N74	N	2.110236	-0.271375	0.001886
C75	C	1.518253	-0.739495	-0.506085
C76	C	2.018253	-0.239495	-0.006085
C77	C	1.585631	-0.970434	-0.439016
C78	C	2.085631	-0.470434	0.060984
C79	C	1.585682	-1.036178	-0.439047
C80	C	2.085682	-0.536178	0.060953
C81	C	1.451223	-1.036180	-0.573315
C82	C	1.951223	-0.536180	-0.073315
C83	C	1.451181	-0.970438	-0.573289
C84	C	1.951181	-0.470438	-0.073289
C85	C	1.518384	-0.937569	-0.506134
C86	C	2.018384	-0.437569	-0.006134
C87	C	1.792271	-0.303220	-0.506084
C88	C	2.292271	0.196780	-0.006084
C89	C	1.909047	-0.303225	-0.506091
C90	C	2.409047	0.196775	-0.006091
C91	C	1.518311	-0.303144	-0.780103
C92	C	2.018311	0.196856	-0.280103
C93	C	1.518342	-0.303117	-0.896880
C94	C	2.018342	0.196883	-0.396880
C95	C	1.518404	-0.139017	-0.506151
C96	C	2.018404	0.360983	-0.006151
C97	C	1.518475	-0.069049	-0.506185
C98	C	2.018475	0.430951	-0.006185
C99	C	1.585589	-0.262855	-0.951767
C100	C	2.085589	0.237145	-0.451767
C101	C	1.585614	-0.262832	-1.061491
C102	C	2.085614	0.237168	-0.561491
C103	C	1.451143	-0.343339	-1.061431
C104	C	1.951143	0.156661	-0.561431
C105	C	1.451113	-0.343358	-0.951709
C106	C	1.951113	0.156642	-0.451709
C107	C	1.663228	-0.216376	-0.951803
C108	C	2.163228	0.283624	-0.451803
C109	C	1.663253	-0.216353	-1.061527
C110	C	2.163253	0.283647	-0.561527
C111	C	1.518225	-0.303225	-0.233102
C112	C	2.018225	0.196775	0.266898
C113	C	1.518397	-0.303075	-0.116326
C114	C	2.018397	0.196925	0.383674
H115	H	1.107628	-0.436347	-0.621279
H116	H	1.607628	0.063653	-0.121279
H117	H	1.744618	-0.229411	-1.091302
H118	H	2.244618	0.270589	-0.591302
H119	H	1.640181	-0.662097	-0.384261
H120	H	2.140181	-0.162097	0.115739
H121	H	1.396255	-0.662109	-0.627859
H122	H	1.896255	-0.162109	-0.127859
C123	C	1.749033	-0.293192	-0.844045
C124	C	2.249033	0.206808	-0.344045
C125	C	1.767531	-0.239965	-0.905843
C126	C	2.267531	0.260035	-0.405843
H127	H	1.813426	-0.307758	-0.815678
H128	H	2.313426	0.192242	-0.315678
H129	H	1.702543	-0.282690	-0.788616
H130	H	2.202543	0.217310	-0.288616
H131	H	1.718598	-0.325232	-0.885938
H132	H	2.218598	0.174768	-0.385938
H133	H	1.797959	-0.207923	-0.863947
H134	H	2.297959	0.292077	-0.363947
H135	H	1.814038	-0.250464	-0.961280
H136	H	2.314038	0.249536	-0.461280
C137	C	1.645607	-1.136951	-0.379619
C138	C	2.145607	-0.636951	0.120381
C139	C	1.659706	-1.072306	-0.365369
C140	C	2.159706	-0.572306	0.134631
H141	H	1.691344	-1.159254	-0.334168
H142	H	2.191344	-0.659254	0.165832
H143	H	1.575077	-1.147803	-0.364087
H144	H	2.075077	-0.647803	0.135913
H145	H	1.660858	-1.147638	-0.450265
H146	H	2.160858	-0.647638	0.049735
H147	H	1.644448	-1.061618	-0.294724
H148	H	2.144448	-0.561618	0.205276
H149	H	1.730253	-1.061449	-0.380894
H150	H	2.230253	-0.561449	0.119106
C151	C	1.391583	-1.136954	-0.632962
C152	C	1.891583	-0.636954	-0.132962
C153	C	1.377349	-1.072310	-0.647117
C154	C	1.877349	-0.572310	-0.147117
H155	H	1.345972	-1.159260	-0.678525
H156	H	1.845972	-0.659260	-0.178525
H157	H	1.462164	-1.147677	-0.648402
H158	H	1.962164	-0.647677	-0.148402
H159	H	1.376248	-1.147768	-0.562359
H160	H	1.876248	-0.647768	-0.062359
H161	H	1.392691	-1.061495	-0.717718
H162	H	1.892691	-0.561495	-0.217718
H163	H	1.306751	-1.061583	-0.631684
H164	H	1.806751	-0.561583	-0.131684
H165	H	1.640098	-0.542832	-0.384219
H166	H	2.140098	-0.042832	0.115781
H167	H	1.634161	-0.170033	-1.095585
H168	H	2.134161	0.329967	-0.595585
H169	H	1.118295	-0.230071	-0.384413
H170	H	1.618295	0.269929	0.115587
C171	C	1.318033	-0.576203	-0.705896
C172	C	1.818033	-0.076203	-0.205896
C173	C	1.377014	-0.533468	-0.646958
C174	C	1.877014	-0.033468	-0.146958
H175	H	1.272393	-0.553897	-0.751439
H176	H	1.772393	-0.053897	-0.251439
H177	H	1.363803	-0.601796	-0.746131
H178	H	1.863803	-0.101796	-0.246131
H179	H	1.277889	-0.601894	-0.660085
H180	H	1.777889	-0.101894	-0.160085
H181	H	1.417165	-0.507781	-0.692769
H182	H	1.917165	-0.007781	-0.192769
H183	H	1.331239	-0.507865	-0.606720
H184	H	1.831239	-0.007865	-0.106720
C185	C	0.795715	-0.227136	-0.379466
C186	C	1.295715	0.272864	0.120534
C187	C	0.903607	-0.218614	-0.365303
C188	C	1.403607	0.281386	0.134697
H189	H	0.758490	-0.199793	-0.333946
H190	H	1.258490	0.300207	0.166054
H191	H	0.777771	-0.217970	-0.450076
H192	H	1.277771	0.282030	0.049924
H193	H	0.777713	-0.269425	-0.363964
H194	H	1.277713	0.230575	0.136036
H195	H	0.921611	-0.176326	-0.380813
H196	H	1.421611	0.323674	0.119187
H197	H	0.921559	-0.227776	-0.294677
H198	H	1.421559	0.272224	0.205323
C199	C	1.028566	-0.361863	-0.827124
C200	C	1.528566	0.138137	-0.327124
C201	C	1.113894	-0.372505	-0.760467
C202	C	1.613894	0.127495	-0.260467
H203	H	1.053423	-0.351021	-0.894963
H204	H	1.553423	0.148979	-0.394963
H205	H	0.987192	-0.398863	-0.831437
H206	H	1.487192	0.101137	-0.331437
H207	H	0.987223	-0.328480	-0.800186
H208	H	1.487223	0.171520	-0.300186
H209	H	1.155232	-0.405891	-0.787401
H210	H	1.655232	0.094109	-0.287401
H211	H	1.155285	-0.335501	-0.756158
H212	H	1.655285	0.164499	-0.256158
H213	H	0.934093	-0.438810	-0.628642
H214	H	1.434093	0.061190	-0.128642
H215	H	1.640355	-0.943671	-0.384338
H216	H	2.140355	-0.443671	0.115662
H217	H	0.929921	-0.372666	-0.727941
H218	H	1.429921	0.127334	-0.227941
H219	H	1.396425	-0.943678	-0.627944
H220	H	1.896425	-0.443678	-0.127944
C221	C	1.533945	-0.134518	-0.948218
C222	C	2.033945	0.365482	-0.448218
C223	C	1.633861	-0.150570	-0.911634
C224	C	2.133861	0.349430	-0.411634
H225	H	1.515814	-0.093895	-0.923413
H226	H	2.015814	0.406105	-0.423413
H227	H	1.533972	-0.134504	-1.022659
H228	H	2.033972	0.365496	-0.522659
H229	H	1.484285	-0.164264	-0.923377
H230	H	1.984285	0.335736	-0.423377
H231	H	1.683522	-0.120826	-0.936483
H232	H	2.183522	0.379174	-0.436483
H233	H	1.633842	-0.150579	-0.837178
H234	H	2.133842	0.349421	-0.337178
C235	C	1.318177	-0.422920	-0.962675
C236	C	1.818177	0.077080	-0.462675
C237	C	1.377178	-0.387606	-0.891376
C238	C	1.877178	0.112394	-0.391376
H239	H	1.272532	-0.450238	-0.925426
H240	H	1.772532	0.049762	-0.425426
H241	H	1.278048	-0.395479	-1.005490
H242	H	1.778048	0.104521	-0.505490
H243	H	1.363942	-0.447001	-1.005454
H244	H	1.863942	0.052999	-0.505454
H245	H	1.331413	-0.363521	-0.848602
H246	H	1.831413	0.136479	-0.348602
H247	H	1.417310	-0.415050	-0.848543
H248	H	1.917310	0.084950	-0.348543
C249	C	1.391481	-0.379059	-1.229602
C250	C	1.891481	0.120941	-0.729602
C251	C	1.377256	-0.387576	-1.121703
C252	C	1.877256	0.112424	-0.621703
H253	H	1.345871	-0.406374	-1.266807
H254	H	1.845871	0.093626	-0.766807
H255	H	1.376149	-0.336765	-1.247603
H256	H	1.876149	0.163235	-0.747603
H257	H	1.462071	-0.388271	-1.247571
H258	H	1.962071	0.111729	-0.747571
H259	H	1.306669	-0.378359	-1.103732
H260	H	1.806669	0.121641	-0.603732
H261	H	1.392581	-0.429880	-1.103695
H262	H	1.892581	0.070120	-0.603695
