data_functionalizedCrystal
_audit_creation_method	'MofGen! by Chris Wilmer'
_symmetry_space_group_name_H-M	'P1'
_symmetry_Int_Tables_number	1
_symmetry_cell_setting	triclinic
loop_
_symmetry_equiv_pos_as_xyz
  x,y,z
_cell_length_a	19.288840
_cell_length_b	19.188925
_cell_length_c	17.766277
_cell_angle_alpha	89.993978
_cell_angle_beta	89.983415
_cell_angle_gamma	83.134282
loop_
_atom_site_label
_atom_site_type_symbol
_atom_site_fract_x
_atom_site_fract_y
_atom_site_fract_z
O1	O	0.921369	0.087016	-0.062719
O2	O	0.719106	0.098784	-0.062693
O3	O	0.826077	-0.008757	-0.062703
O4	O	0.814399	0.194557	-0.062710
O5	O	0.826058	-0.008762	0.062486
O6	O	0.719088	0.098779	0.062495
O7	O	0.921350	0.087011	0.062469
Cu8	Cu	0.820217	0.092894	0.073913
Cu9	Cu	0.820239	0.092901	-0.074137
O10	O	0.814380	0.194552	0.062479
C11	C	0.693220	0.098406	-0.000096
C12	C	0.616116	0.097278	-0.000086
C13	C	0.579922	0.096739	-0.068328
C14	C	0.507475	0.095671	-0.068337
C15	C	0.471226	0.095128	-0.000100
C16	C	0.507428	0.095671	0.068151
C17	C	0.579873	0.096746	0.068158
C18	C	0.361889	0.052528	0.052170
C19	C	0.289446	0.051449	0.052160
C20	C	0.247783	0.091817	-0.000120
C21	C	0.278572	0.133255	-0.052402
C22	C	0.351017	0.134330	-0.052394
C23	C	0.392672	0.093964	-0.000100
C24	C	0.133034	0.090122	-0.068376
C25	C	0.060585	0.089059	-0.068383
C26	C	0.060540	0.089052	0.068107
C27	C	0.132987	0.090122	0.068112
C28	C	0.169230	0.090654	-0.000132
C29	C	0.825690	-0.034771	-0.000109
C30	C	0.824556	-0.112275	-0.000110
C31	C	0.879734	-0.674054	-0.000137
C32	C	0.880805	-0.601231	-0.000130
C33	C	0.818039	-0.556287	-0.000122
C34	C	0.754196	-0.584170	-0.000101
C35	C	0.753127	-0.656992	-0.000101
N36	N	0.772604	-0.435597	-0.042727
N37	N	0.773624	-0.366420	-0.042729
C38	C	0.821256	-0.336878	-0.000123
N39	N	0.867840	-0.379128	0.042477
N40	N	0.866822	-0.448312	0.042476
C41	C	0.819191	-0.477323	-0.000122
C42	C	0.886255	-0.230040	-0.000131
C43	C	0.887324	-0.157215	-0.000119
C44	C	0.760713	-0.140155	-0.000099
C45	C	0.759646	-0.212978	-0.000102
C46	C	0.822420	-0.257917	-0.000122
C47	C	0.947236	0.087389	-0.000130
C48	C	1.024341	0.088517	-0.000145
C49	C	0.814767	0.220565	-0.000117
C50	C	0.815900	0.298070	-0.000120
N51	N	0.820207	0.092889	0.178043
N52	N	0.820255	0.092900	-0.178267
C53	C	0.867588	0.045293	0.217426
C54	C	0.867592	0.045290	0.296228
C55	C	0.820221	0.092895	0.335644
C56	C	0.772831	0.140494	0.296252
C57	C	0.772824	0.140491	0.217451
C58	C	0.810926	0.156512	0.460480
C59	C	0.810938	0.156516	0.539279
C60	C	0.820240	0.092903	0.578690
C61	C	0.829544	0.029284	0.539293
C62	C	0.829537	0.029281	0.460492
C63	C	0.820224	0.092903	0.421090
C64	C	0.867628	0.045300	0.703519
C65	C	0.867628	0.045296	0.782322
C66	C	0.772870	0.140506	0.782344
C67	C	0.772867	0.140504	0.703543
C68	C	0.820250	0.092902	0.664135
H69	H	0.162544	0.090562	-0.123945
Br70	Br	0.931931	-0.019305	0.650034
H71	H	0.906169	0.006531	0.185342
Br72	Br	0.182110	0.090851	0.160731
H73	H	0.707666	-0.235674	-0.000095
H74	H	0.734260	0.179253	0.328348
H75	H	0.906177	0.006530	0.328299
H76	H	0.734239	0.179250	0.185385
H77	H	0.930849	-0.710639	-0.000148
Br78	Br	0.666489	-0.694826	-0.000078
H79	H	0.734287	0.179264	0.671475
Br80	Br	0.458345	0.094941	-0.160958
Br81	Br	0.931930	-0.019310	0.835774
Br82	Br	0.011462	0.088336	-0.161006
Br83	Br	0.798319	0.242855	0.592739
H84	H	0.609427	0.097172	-0.123897
Br85	Br	0.392801	0.190566	-0.123342
Br86	Br	0.842157	-0.057055	0.407026
Br87	Br	0.675528	-0.079166	-0.000074
Br88	Br	0.973963	-0.119383	-0.000143
H89	H	0.937369	-0.266631	-0.000146
Br90	Br	0.669012	-0.523176	-0.000084
H91	H	0.244651	0.166130	-0.094970
Br92	Br	0.011352	0.088326	0.160717
Br93	Br	0.708572	0.205105	0.835831
H94	H	0.264383	0.017704	0.094727
Br95	Br	0.842178	-0.057055	0.592768
Br96	Br	0.798371	0.242854	0.407002
H97	H	0.477909	0.095231	0.123710
Br98	Br	0.418424	-0.002259	0.123130
H99	H	0.609341	0.097185	0.123731
H100	H	0.932788	-0.578530	-0.000143
