data_functionalizedCrystal
_audit_creation_method	'MofGen! by Chris Wilmer'
_symmetry_space_group_name_H-M	'P1'
_symmetry_Int_Tables_number	1
_symmetry_cell_setting	triclinic
loop_
_symmetry_equiv_pos_as_xyz
  x,y,z
_cell_length_a	19.188900
_cell_length_b	17.666332
_cell_length_c	15.944551
_cell_angle_alpha	89.992575
_cell_angle_beta	83.315614
_cell_angle_gamma	89.982262
loop_
_atom_site_label
_atom_site_type_symbol
_atom_site_fract_x
_atom_site_fract_y
_atom_site_fract_z
O1	O	-0.926434	0.063097	-0.104747
O2	O	-0.723156	0.063066	-0.118890
O3	O	-0.830346	0.063076	0.010478
O4	O	-0.819244	0.063088	-0.234115
O5	O	-0.830327	-0.062821	0.010485
O6	O	-0.723137	-0.062830	-0.118883
O7	O	-0.926415	-0.062800	-0.104740
Cu8	Cu	-0.824774	-0.074311	-0.111811
Cu9	Cu	-0.824797	0.074577	-0.111819
O10	O	-0.819225	-0.062809	-0.234108
C11	C	-0.697134	0.000114	-0.118433
C12	C	-0.619625	0.000102	-0.117071
C13	C	-0.583242	0.068730	-0.116420
C14	C	-0.510414	0.068737	-0.115131
C15	C	-0.473975	0.000113	-0.114475
C16	C	-0.510367	-0.068523	-0.115131
C17	C	-0.583192	-0.068529	-0.116429
N18	N	-0.364818	-0.050961	-0.064635
N19	N	-0.295638	-0.050951	-0.063400
C20	C	-0.254558	0.000126	-0.110567
N21	N	-0.285273	0.051205	-0.159005
N22	N	-0.354460	0.051197	-0.160236
C23	C	-0.395009	0.000112	-0.113069
C24	C	-0.139207	0.068767	-0.108520
C25	C	-0.066378	0.068771	-0.107235
C26	C	-0.066333	-0.068491	-0.107227
C27	C	-0.139159	-0.068494	-0.108520
C28	C	-0.175593	0.000137	-0.109162
N29	N	-0.824764	-0.179030	-0.111805
C30	C	-0.872243	-0.218636	-0.054549
C31	C	-0.872247	-0.297883	-0.054545
C32	C	-0.824779	-0.337522	-0.111811
C33	C	-0.777291	-0.297907	-0.169072
C34	C	-0.777283	-0.218661	-0.169069
N35	N	-0.815894	-0.461938	-0.186169
N36	N	-0.815906	-0.537218	-0.186169
C37	C	-0.824797	-0.576286	-0.111823
N38	N	-0.833691	-0.537230	-0.037474
N39	N	-0.833683	-0.461942	-0.037474
C40	C	-0.824781	-0.423451	-0.111821
C41	C	-0.872283	-0.701821	-0.054558
C42	C	-0.872282	-0.781070	-0.054552
C43	C	-0.777329	-0.781092	-0.169087
C44	C	-0.777327	-0.701845	-0.169085
C45	C	-0.824807	-0.662214	-0.111821
C46	C	0.047564	0.000148	-0.105203
C47	C	-0.029944	0.000147	-0.106581
C48	C	-0.829876	0.000127	0.041773
C49	C	-0.828494	0.000126	0.135014
N50	N	-0.824813	0.179296	-0.111819
C51	C	-0.819695	0.000141	-0.265404
C52	C	-0.821077	0.000147	-0.358644
C53	C	-0.758750	0.000126	0.349601
C54	C	-0.791127	-0.061944	0.410747
C55	C	-0.825994	0.000132	0.305730
C56	C	-0.791162	0.062181	0.410724
C57	C	-0.823575	0.000140	0.470634
C58	C	-0.858390	-0.061989	0.365648
C59	C	-0.858415	0.062191	0.365619
C60	C	-0.890842	0.000106	0.426747
C61	C	-0.827386	0.000126	0.210733
C62	C	-0.822188	0.000140	0.565629
H63	H	-0.036755	0.124658	-0.106711
C64	C	-0.924481	-0.341460	0.008437
C65	C	-0.976726	-0.297866	0.071398
C66	C	-1.028962	-0.341439	0.134378
C67	C	-1.028951	-0.428607	0.134398
C68	C	-0.976704	-0.472206	0.071436
C69	C	-0.924469	-0.428633	0.008455
H70	H	-0.976736	-0.233335	0.071385
H71	H	-1.067638	-0.309164	0.180987
H72	H	-1.067619	-0.460862	0.181020
H73	H	-0.976695	-0.536737	0.071448
H74	H	-0.885792	-0.460908	-0.038154
C75	C	-0.026260	-0.143980	-0.106508
C76	C	0.031747	-0.162850	-0.178538
C77	C	0.071823	-0.238342	-0.177822
C78	C	0.053892	-0.294965	-0.105077
C79	C	-0.004118	-0.276097	-0.033041
C80	C	-0.044194	-0.200604	-0.033756
H81	H	0.045023	-0.120933	-0.232393
H82	H	0.114765	-0.252309	-0.231148
H83	H	0.083558	-0.350849	-0.104547
H84	H	-0.017394	-0.318014	0.020815
H85	H	-0.087137	-0.186637	0.019570
H86	H	-0.168784	-0.124378	-0.109044
C87	C	-0.924463	-0.175040	0.008446
C88	C	-0.923293	-0.185952	0.104094
C89	C	-0.975511	-0.142352	0.167090
C90	C	-1.028899	-0.087841	0.134437
C91	C	-1.030071	-0.076927	0.038784
C92	C	-0.977853	-0.120526	-0.024212
H93	H	-0.883770	-0.226306	0.128270
H94	H	-0.974643	-0.150432	0.237898
H95	H	-1.067554	-0.055566	0.181070
H96	H	-1.069594	-0.036572	0.014608
H97	H	-0.978721	-0.112446	-0.095021
H98	H	-0.910943	-0.669552	-0.007927
H99	H	-0.738640	-0.330185	-0.215698
C100	C	-0.966309	0.000073	0.471840
C101	C	-0.991314	-0.065001	0.532226
C102	C	-1.066780	-0.065038	0.577319
C103	C	-1.117242	-0.000001	0.562026
C104	C	-1.092238	0.065077	0.501637
C105	C	-1.016772	0.065115	0.456544
H106	H	-0.953958	-0.113150	0.543549
H107	H	-1.085290	-0.113214	0.622023
H108	H	-1.173107	-0.000029	0.595406
H109	H	-1.129594	0.113226	0.490313
H110	H	-0.998263	0.113291	0.411840
C111	C	-0.623216	-0.144025	-0.117136
C112	C	-0.665342	-0.162905	-0.190945
C113	C	-0.705368	-0.238402	-0.191648
C114	C	-0.703268	-0.295020	-0.118543
C115	C	-0.661140	-0.276142	-0.044729
C116	C	-0.621114	-0.200644	-0.044025
H117	H	-0.666899	-0.120991	-0.245066
H118	H	-0.736554	-0.252377	-0.246291
H119	H	-0.732897	-0.350908	-0.119064
H120	H	-0.659584	-0.318055	0.009393
H121	H	-0.589929	-0.186670	0.010618
C122	C	-0.725057	-0.175089	-0.232059
C123	C	-0.672859	-0.218683	-0.295077
C124	C	-0.620634	-0.175109	-0.358068
C125	C	-0.620606	-0.087941	-0.358042
C126	C	-0.672806	-0.044343	-0.295022
C127	C	-0.725031	-0.087917	-0.232030
H128	H	-0.672878	-0.283214	-0.295098
H129	H	-0.581993	-0.207384	-0.404720
H130	H	-0.581946	-0.055685	-0.404672
H131	H	-0.672787	0.020188	-0.295000
H132	H	-0.763673	-0.055642	-0.185378
C133	C	-0.896816	0.133094	0.338558
C134	C	-0.868600	0.212442	0.356021
C135	C	-0.906994	0.283352	0.328957
C136	C	-0.973604	0.274913	0.284431
C137	C	-1.001824	0.195561	0.266966
C138	C	-0.963430	0.124652	0.294030
H139	H	-0.819288	0.218692	0.388984
H140	H	-0.886104	0.342094	0.341886
H141	H	-1.002026	0.327405	0.264397
H142	H	-1.051136	0.189312	0.234003
H143	H	-0.984320	0.065910	0.281101
C144	C	-0.896768	-0.132961	0.338803
C145	C	-0.905135	-0.146098	0.245025
C146	C	-0.943509	-0.217070	0.218178
C147	C	-0.973515	-0.274905	0.285108
C148	C	-0.965149	-0.261771	0.378892
C149	C	-0.926775	-0.190799	0.405739
H150	H	-0.882922	-0.103282	0.195474
H151	H	-0.949702	-0.226792	0.148753
H152	H	-1.001922	-0.327443	0.265234
H153	H	-0.987362	-0.304586	0.428443
H154	H	-0.920582	-0.181076	0.475164
C155	C	-0.683349	0.000036	0.304305
C156	C	-0.670814	0.000691	0.207141
C157	C	-0.595416	0.000597	0.161844
C158	C	-0.532554	-0.000152	0.213712
C159	C	-0.545088	-0.000806	0.310881
C160	C	-0.620485	-0.000712	0.356178
H161	H	-0.717350	0.001245	0.168740
H162	H	-0.586138	0.001082	0.089912
H163	H	-0.476740	-0.000221	0.180180
H164	H	-0.498552	-0.001361	0.349282
H165	H	-0.629763	-0.001197	0.428110
H166	H	-0.762678	-0.114427	0.430748
C167	C	-0.725105	-0.658272	-0.232076
C168	C	-0.672908	-0.701865	-0.295094
C169	C	-0.620683	-0.658291	-0.358086
C170	C	-0.620655	-0.571124	-0.358059
C171	C	-0.672854	-0.527525	-0.295039
C172	C	-0.725080	-0.571099	-0.232047
H173	H	-0.672927	-0.766396	-0.295116
H174	H	-0.582041	-0.690567	-0.404738
H175	H	-0.581995	-0.538868	-0.404690
H176	H	-0.672836	-0.462994	-0.295017
H177	H	-0.763721	-0.538824	-0.185395
C178	C	-0.470380	0.144230	-0.114408
C179	C	-0.428259	0.163091	-0.040590
C180	C	-0.388227	0.238583	-0.039866
C181	C	-0.390316	0.295215	-0.112960
C182	C	-0.432439	0.276356	-0.186784
C183	C	-0.472472	0.200863	-0.187508
H184	H	-0.426710	0.121167	0.013524
H185	H	-0.357044	0.252543	0.014784
H186	H	-0.360682	0.351098	-0.112424
H187	H	-0.433988	0.318279	-0.240898
H188	H	-0.503654	0.186903	-0.242158
C189	C	-0.752739	0.133070	0.437709
C190	C	-0.675431	0.146677	0.403197
C191	C	-0.637002	0.217562	0.430179
C192	C	-0.675882	0.274841	0.491672
C193	C	-0.753195	0.261236	0.526187
C194	C	-0.791623	0.190350	0.499206
H195	H	-0.646646	0.104275	0.357673
H196	H	-0.579770	0.227633	0.404628
H197	H	-0.647436	0.327314	0.511645
H198	H	-0.781980	0.303638	0.571711
H199	H	-0.848855	0.180279	0.524757
H200	H	-0.910943	-0.813318	-0.007923
H201	H	-0.168872	0.124650	-0.109051
C202	C	-0.623313	0.144224	-0.117136
C203	C	-0.621251	0.200838	-0.044038
C204	C	-0.661322	0.276334	-0.044756
C205	C	-0.703455	0.295215	-0.118572
C206	C	-0.705518	0.238599	-0.191675
C207	C	-0.665447	0.163103	-0.190957
H208	H	-0.590060	0.186863	0.010610
H209	H	-0.659794	0.318244	0.009361
H210	H	-0.733117	0.351101	-0.119103
H211	H	-0.736709	0.252574	-0.246323
H212	H	-0.666975	0.121193	-0.245074
H213	H	-0.480693	-0.124397	-0.114599
H214	H	-0.738677	-0.813366	-0.215711
