data_functionalizedCrystal
_audit_creation_method	'MofGen! by Chris Wilmer'
_symmetry_space_group_name_H-M	'P1'
_symmetry_Int_Tables_number	1
_symmetry_cell_setting	triclinic
loop_
_symmetry_equiv_pos_as_xyz
  x,y,z
_cell_length_a	12.759401
_cell_length_b	16.625539
_cell_length_c	16.625546
_cell_angle_alpha	89.971468
_cell_angle_beta	90.021512
_cell_angle_gamma	89.986045
loop_
_atom_site_label
_atom_site_type_symbol
_atom_site_fract_x
_atom_site_fract_y
_atom_site_fract_z
Zn1	Zn	1.606151	-0.455831	-0.321036
Zn2	Zn	1.606035	-0.320993	-0.455874
Zn3	Zn	1.430467	-0.321019	-0.321057
Zn4	Zn	1.430418	-0.455790	-0.455828
O5	O	1.518268	-0.388408	-0.388449
O6	O	1.753157	-0.437951	-0.338933
O7	O	1.582718	-0.208164	-0.438019
O8	O	1.453841	-0.338929	-0.208222
O9	O	1.753072	-0.338886	-0.437998
O10	O	1.582915	-0.437975	-0.208206
O11	O	1.453729	-0.208183	-0.338970
O12	O	1.283439	-0.338890	-0.338924
O13	O	1.453757	-0.568628	-0.437919
O14	O	1.283403	-0.437906	-0.437940
O15	O	1.582867	-0.568658	-0.338888
O16	O	1.582670	-0.338847	-0.568701
O17	O	1.453645	-0.437882	-0.568666
C18	C	1.245300	-0.388397	-0.388430
C19	C	1.128524	-0.388411	-0.388441
C20	C	1.073699	-0.440074	-0.336955
C21	C	0.963975	-0.440079	-0.336971
C22	C	0.963910	-0.336756	-0.439965
C23	C	1.073632	-0.336748	-0.439945
C24	C	1.073735	-0.499730	-0.277494
C25	C	0.964011	-0.499735	-0.277510
C26	C	1.518319	-0.598717	-0.388395
C27	C	1.518341	-0.688338	-0.388373
C28	C	1.518358	-0.761121	-0.388355
C29	C	1.518383	-0.852429	-0.388325
C30	C	1.518408	-0.925206	-0.388297
C31	C	1.518434	-1.016520	-0.388267
C32	C	1.792301	-0.388420	-0.388468
C33	C	1.909078	-0.388425	-0.388477
C34	C	1.518168	-0.388375	-0.597940
C35	C	1.518222	-0.388387	-0.687561
C36	C	1.518277	-0.178917	-0.388444
C37	C	1.518458	-0.089297	-0.388239
C38	C	1.518405	-0.388471	-1.015736
C39	C	1.518351	-0.388450	-0.924428
C40	C	1.518313	-0.388429	-0.851651
C41	C	1.518260	-0.388408	-0.760337
C42	C	1.518396	-0.388460	-0.178140
C43	C	1.518451	-0.388482	-0.088519
H44	H	1.107790	-0.559005	-0.299937
C45	C	0.903526	-0.279932	-0.496620
C46	C	0.918575	-0.188281	-0.489914
C47	C	0.858193	-0.131457	-0.546571
C48	C	0.782763	-0.166282	-0.609934
C49	C	0.767711	-0.257938	-0.616642
C50	C	0.828092	-0.314763	-0.559985
H51	H	0.974416	-0.162497	-0.443007
H52	H	0.869336	-0.063607	-0.541605
H53	H	0.738065	-0.124217	-0.651875
H54	H	0.711870	-0.283722	-0.663549
H55	H	0.816949	-0.382613	-0.564951
C56	C	1.113977	-0.477283	-0.193099
C57	C	1.232637	-0.472929	-0.176724
C58	C	1.272879	-0.450482	-0.092331
C59	C	1.194462	-0.432390	-0.024314
C60	C	1.075795	-0.436744	-0.040687
C61	C	1.035553	-0.459191	-0.125080
H62	H	1.290692	-0.486322	-0.227076
H63	H	1.360724	-0.447259	-0.080211
H64	H	1.224251	-0.415773	0.038158
H65	H	1.017739	-0.423350	0.009665
H66	H	0.947707	-0.462413	-0.137200
H67	H	1.118267	-0.294671	-0.481862
H68	H	0.929982	-0.477484	-0.218161
C69	C	0.923803	-0.584053	-0.300232
C70	C	1.002248	-0.652021	-0.318540
C71	C	0.962040	-0.736335	-0.341263
C72	C	0.843387	-0.752681	-0.345680
C73	C	0.764935	-0.684711	-0.327372
C74	C	0.805143	-0.600397	-0.304648
H75	H	1.090089	-0.639923	-0.315271
H76	H	1.020116	-0.786651	-0.354816
H77	H	0.813623	-0.815095	-0.362501
H78	H	0.677095	-0.696809	-0.330640
H79	H	0.747067	-0.550081	-0.291095
