data_functionalizedCrystal
_audit_creation_method	'MofGen! by Chris Wilmer'
_symmetry_space_group_name_H-M	'P1'
_symmetry_Int_Tables_number	1
_symmetry_cell_setting	triclinic
loop_
_symmetry_equiv_pos_as_xyz
  x,y,z
_cell_length_a	21.295418
_cell_length_b	21.295417
_cell_length_c	21.295411
_cell_angle_alpha	89.978356
_cell_angle_beta	90.043738
_cell_angle_gamma	89.953681
loop_
_atom_site_label
_atom_site_type_symbol
_atom_site_fract_x
_atom_site_fract_y
_atom_site_fract_z
Zn1	Zn	0.962356	0.250415	0.356234
Zn2	Zn	1.462356	0.750415	0.856234
Zn3	Zn	0.962258	0.355667	0.250959
Zn4	Zn	1.462258	0.855667	0.750959
Zn5	Zn	0.857079	0.250445	0.250943
Zn6	Zn	1.357079	0.750445	0.750943
Zn7	Zn	0.857048	0.355680	0.356155
Zn8	Zn	1.357048	0.855680	0.856155
O9	O	0.909685	0.303052	0.303573
O10	O	1.409685	0.803052	0.803573
O11	O	1.050432	0.264360	0.342308
O12	O	1.550432	0.764360	0.842308
O13	O	0.948278	0.341716	0.162867
O14	O	1.448278	0.841716	0.662867
O15	O	0.871098	0.162351	0.264937
O16	O	1.371098	0.662351	0.764937
O17	O	1.050361	0.341688	0.264963
O18	O	1.550361	0.841688	0.764963
O19	O	0.948444	0.162330	0.342293
O20	O	1.448444	0.662330	0.842293
O21	O	0.871003	0.264410	0.162856
O22	O	1.371003	0.764410	0.662856
O23	O	0.768985	0.264422	0.264861
O24	O	1.268985	0.764422	0.764861
O25	O	0.871046	0.341709	0.444255
O26	O	1.371046	0.841709	0.944255
O27	O	0.768963	0.341738	0.342160
O28	O	1.268963	0.841738	0.842160
O29	O	0.948415	0.264372	0.444313
O30	O	1.448415	0.764372	0.944313
O31	O	0.948248	0.443758	0.264887
O32	O	1.448248	0.943758	0.764887
O33	O	0.870951	0.443767	0.342175
O34	O	1.370951	0.943767	0.842175
C35	C	0.746134	0.303085	0.303500
C36	C	1.246134	0.803085	0.803500
C37	C	0.676166	0.303114	0.303484
C38	C	1.176166	0.803114	0.803484
C39	C	0.909603	0.466603	0.303538
C40	C	1.409603	0.966603	0.803538
C41	C	0.909625	0.536571	0.303544
C42	C	1.409625	1.036571	0.803544
C43	C	0.643304	0.343426	0.343674
C44	C	1.143304	0.843426	0.843674
C45	C	0.577561	0.343410	0.343702
C46	C	1.077561	0.843410	0.843702
C47	C	0.544683	0.303090	0.303530
C48	C	1.044683	0.803090	0.803530
C49	C	0.577553	0.262770	0.263337
C50	C	1.077553	0.762770	0.763337
C51	C	0.643294	0.262783	0.263315
C52	C	1.143294	0.762783	0.763315
N53	N	0.441407	0.298163	0.248472
N54	N	0.941407	0.798163	0.748472
N55	N	0.378956	0.298155	0.248495
N56	N	0.878956	0.798155	0.748495
C57	C	0.346608	0.303050	0.303596
C58	C	0.846608	0.803050	0.803596
N59	N	0.379072	0.307965	0.358675
N60	N	0.879072	0.807965	0.858675
N61	N	0.441529	0.307976	0.358650
N62	N	0.941529	0.807976	0.858650
C63	C	0.473398	0.303072	0.303550
C64	C	0.973398	0.803072	0.803550
C65	C	0.242461	0.343346	0.343820
C66	C	0.742461	0.843346	0.843820
C67	C	0.176717	0.343326	0.343849
C68	C	0.676717	0.843326	0.843849
C69	C	0.176710	0.262690	0.263479
C70	C	0.676710	0.762690	0.763479
C71	C	0.242453	0.262707	0.263455
C72	C	0.742453	0.762707	0.763455
C73	C	0.275324	0.303038	0.303625
C74	C	0.775324	0.803038	0.803625
C75	C	0.909738	0.303038	0.467763
C76	C	1.409738	0.803038	0.967763
C77	C	0.909760	0.303033	0.537731
C78	C	1.409760	0.803033	1.037731
C79	C	1.073876	0.303019	0.303646
C80	C	1.573876	0.803019	0.803646
C81	C	1.143844	0.303005	0.303677
C82	C	1.643844	0.803005	0.803677
C83	C	0.909785	0.138861	0.303622
C84	C	1.409785	0.638861	0.803622
C85	C	0.909828	0.068893	0.303642
C86	C	1.409828	0.568893	0.803642
C87	C	0.949910	0.569412	0.263342
C88	C	1.449910	1.069412	0.763342
C89	C	0.949939	0.635155	0.263356
C90	C	1.449939	1.135155	0.763356
C91	C	0.909673	0.668054	0.303566
C92	C	1.409673	1.168054	0.803566
C93	C	0.869386	0.635205	0.343776
C94	C	1.369386	1.135205	0.843776
C95	C	0.869362	0.569464	0.343765
C96	C	1.369362	1.069464	0.843765
N97	N	0.854606	0.771336	0.308340
N98	N	1.354606	1.271336	0.808340
N99	N	0.854630	0.833787	0.308347
N100	N	1.354630	1.333787	0.808347
C101	C	0.909743	0.866129	0.303602
C102	C	1.409743	1.366129	0.803602
N103	N	0.964832	0.833659	0.298838
N104	N	1.464832	1.333659	0.798838
N105	N	0.964807	0.771202	0.298828
N106	N	1.464807	1.271202	0.798828
C107	C	0.909695	0.739339	0.303582
C108	C	1.409695	1.239339	0.803582
C109	C	0.950063	0.970255	0.263413
C110	C	1.450063	1.470255	0.763413
C111	C	0.950094	1.035999	0.263431
C112	C	1.450094	1.535999	0.763431
C113	C	0.869535	1.036048	0.343848
C114	C	1.369535	1.536048	0.843848
C115	C	0.869510	0.970305	0.343833
C116	C	1.369510	1.470305	0.843833
C117	C	0.909773	0.937413	0.303612
C118	C	1.409773	1.437413	0.803612
C119	C	0.909670	0.303019	0.140021
C120	C	1.409670	0.803019	0.640021
C121	C	0.909769	0.302848	0.070054
C122	C	1.409769	0.802848	0.570054
C123	C	0.950044	0.262761	0.570629
C124	C	1.450044	0.762761	1.070629
C125	C	0.950043	0.262734	0.636371
C126	C	1.450043	0.762734	1.136371
C127	C	0.909765	0.302989	0.669214
C128	C	1.409765	0.802989	1.169214
C129	C	0.869473	0.343263	0.636308
C130	C	1.369473	0.843263	1.136308
C131	C	0.869470	0.343285	0.570567
C132	C	1.369470	0.843285	1.070567
N133	N	0.904908	0.358058	0.772428
N134	N	1.404908	0.858058	1.272428
N135	N	0.904914	0.358036	0.834879
N136	N	1.404914	0.858036	1.334879
C137	C	0.909769	0.302926	0.867289
C138	C	1.409769	0.802926	1.367289
N139	N	0.914629	0.247837	0.834888
N140	N	1.414629	0.747837	1.334888
N141	N	0.914627	0.247860	0.772430
N142	N	1.414627	0.747860	1.272430
C143	C	0.909763	0.302970	0.740499
C144	C	1.409763	0.802970	1.240499
C145	C	0.950054	0.262621	0.971472
C146	C	1.450054	0.762621	1.471472
C147	C	0.950049	0.262593	1.037216
C148	C	1.450049	0.762593	1.537216
C149	C	0.869482	0.343128	1.037151
C150	C	1.369482	0.843128	1.537151
C151	C	0.869484	0.343151	0.971409
C152	C	1.369484	0.843151	1.471409
C153	C	0.909773	0.302898	0.938573
C154	C	1.409773	0.802898	1.438573
H155	H	0.670063	0.376266	0.376384
H156	H	1.170063	0.876266	0.876384
H157	H	0.836680	0.375898	1.063891
H158	H	1.336680	0.875898	1.563891
H159	H	0.982746	0.661899	0.230619
H160	H	1.482746	1.161899	0.730619
C161	C	0.140555	0.218338	0.219284
C162	C	0.640555	0.718338	0.719284
C163	C	0.149673	0.146785	0.224546
C164	C	0.649673	0.646785	0.724546
C165	C	0.113516	0.102431	0.180350
C166	C	0.613516	0.602431	0.680350
C167	C	0.068241	0.129628	0.130892
C168	C	0.568241	0.629628	0.630892
C169	C	0.059122	0.201184	0.125628
C170	C	0.559122	0.701184	0.625628
C171	C	0.095279	0.245539	0.169824
C172	C	0.595279	0.745539	0.669824
H173	H	0.183189	0.126649	0.261160
H174	H	0.683189	0.626649	0.761160
H175	H	0.120267	0.049460	0.184247
H176	H	0.620267	0.549460	0.684247
H177	H	0.041476	0.096794	0.098175
H178	H	0.541476	0.596794	0.598175
H179	H	0.025605	0.221321	0.089015
H180	H	0.525605	0.721321	0.589015
H181	H	0.088528	0.298510	0.165927
H182	H	0.588528	0.798510	0.665927
C183	C	0.278625	0.387701	0.388012
C184	C	0.778625	0.887701	0.888012
C185	C	0.350938	0.387720	0.387987
C186	C	0.850938	0.887720	0.887987
C187	C	0.387099	0.432073	0.432180
C188	C	0.887099	0.932073	0.932180
C189	C	0.350948	0.476409	0.476399
C190	C	0.850948	0.976409	0.976399
C191	C	0.278631	0.476392	0.476426
C192	C	0.778631	0.976392	0.976426
C193	C	0.242470	0.432038	0.432232
C194	C	0.742470	0.932038	0.932232
H195	H	0.377702	0.354898	0.355252
H196	H	0.877702	0.854898	0.855252
H197	H	0.440633	0.432085	0.432160
H198	H	0.940633	0.932085	0.932160
H199	H	0.377717	0.509242	0.509113
H200	H	0.877717	1.009242	1.009113
H201	H	0.251867	0.509213	0.509160
H202	H	0.751867	1.009213	1.009160
H203	H	0.188936	0.432026	0.432252
H204	H	0.688936	0.932026	0.932252
C205	C	0.541401	0.387758	0.387908
C206	C	1.041401	0.887758	0.887908
C207	C	0.550360	0.459314	0.382625
C208	C	1.050360	0.959314	0.882625
C209	C	0.514202	0.503662	0.426830
C210	C	1.014202	1.003662	0.926830
C211	C	0.469085	0.476456	0.476318
C212	C	0.969085	0.976456	0.976318
C213	C	0.460124	0.404897	0.481603
C214	C	0.960124	0.904897	0.981603
C215	C	0.496282	0.360548	0.437398
C216	C	0.996282	0.860548	0.937398
H217	H	0.583761	0.479457	0.345990
H218	H	1.083761	0.979457	0.845990
H219	H	0.520836	0.556635	0.422918
H220	H	1.020836	1.056635	0.922918
H221	H	0.442319	0.509286	0.509041
H222	H	0.942319	1.009286	1.009041
H223	H	0.426724	0.384754	0.518238
H224	H	0.926724	0.884754	1.018238
H225	H	0.489648	0.307576	0.441311
H226	H	0.989648	0.807576	0.941311
H227	H	0.836602	0.661996	0.376516
H228	H	1.336602	1.161996	0.876516
C229	C	0.994367	0.218342	0.935347
C230	C	1.494367	0.718342	1.435347
C231	C	0.994372	0.218369	0.863034
C232	C	1.494372	0.718369	1.363034
C233	C	1.038685	0.174089	0.826912
C234	C	1.538685	0.674089	1.326912
C235	C	1.082993	0.129783	0.863102
C236	C	1.582993	0.629783	1.363102
C237	C	1.082990	0.129755	0.935419
C238	C	1.582990	0.629755	1.435419
C239	C	1.038676	0.174034	0.971542
C240	C	1.538676	0.674034	1.471542
H241	H	0.961571	0.251168	0.836241
H242	H	1.461571	0.751168	1.336241
H243	H	1.038687	0.174111	0.773378
H244	H	1.538687	0.674111	1.273378
H245	H	1.115796	0.097005	0.836362
H246	H	1.615796	0.597005	1.336362
H247	H	1.115791	0.096955	0.962213
H248	H	1.615791	0.596955	1.462213
H249	H	1.038674	0.174012	1.025076
H250	H	1.538674	0.674012	1.525076
C251	C	0.825189	0.934176	0.388050
C252	C	1.325189	1.434176	0.888050
C253	C	0.825160	0.861863	0.388040
C254	C	1.325160	1.361863	0.888040
C255	C	0.780838	0.825733	0.432260
C256	C	1.280838	1.325733	0.932260
C257	C	0.736545	0.861917	0.476491
C258	C	1.236545	1.361917	0.976491
C259	C	0.736572	0.934234	0.476503
C260	C	1.236572	1.434234	0.976503
C261	C	0.780894	0.970363	0.432283
C262	C	1.280894	1.470363	0.932283
H263	H	0.857951	0.835074	0.355296
H264	H	1.357951	1.335074	0.855296
H265	H	0.780819	0.772200	0.432251
H266	H	1.280819	1.272200	0.932251
H267	H	0.703735	0.835172	0.509226
H268	H	1.203735	1.335172	1.009226
H269	H	0.703781	0.961022	0.509247
H270	H	1.203781	1.461022	1.009247
H271	H	0.780913	1.023897	0.432292
H272	H	1.280913	1.523897	0.932292
C273	C	0.994355	0.218476	0.534513
C274	C	1.494355	0.718476	1.034513
C275	C	0.967105	0.169072	0.489304
C276	C	1.467105	0.669072	0.989304
C277	C	1.011413	0.124784	0.453187
C278	C	1.511413	0.624784	0.953187
C279	C	1.082972	0.129900	0.462279
C280	C	1.582972	0.629900	0.962279
C281	C	1.110226	0.179306	0.507490
C282	C	1.610226	0.679306	1.007490
C283	C	1.065917	0.223594	0.543607
C284	C	1.565917	0.723594	1.043607
H285	H	0.914129	0.165283	0.482572
H286	H	1.414129	0.665283	0.982572
H287	H	0.991238	0.088210	0.419719
H288	H	1.491238	0.588210	0.919719
H289	H	1.115772	0.097115	0.435543
H290	H	1.615772	0.597115	0.935543
H291	H	1.163202	0.183094	0.514222
H292	H	1.663202	0.683094	1.014222
H293	H	1.086093	0.260167	0.577075
H294	H	1.586093	0.760167	1.077075
C295	C	0.994362	0.218438	0.672571
C296	C	1.494362	0.718438	1.172571
C297	C	1.065920	0.223576	0.663586
C298	C	1.565920	0.723576	1.163586
C299	C	1.110240	0.179283	0.699783
C300	C	1.610240	0.679283	1.199783
C301	C	1.083003	0.129851	0.744966
C302	C	1.583003	0.629851	1.244966
C303	C	1.011441	0.124712	0.753953
C304	C	1.511441	0.624712	1.253953
C305	C	0.967121	0.169005	0.717755
C306	C	1.467121	0.669005	1.217755
H307	H	1.086086	0.260170	0.630137
H308	H	1.586086	0.760170	1.130137
H309	H	1.163214	0.183088	0.693130
H310	H	1.663214	0.683088	1.193130
H311	H	1.115811	0.097063	0.771761
H312	H	1.615811	0.597063	1.271761
H313	H	0.991275	0.088118	0.787401
H314	H	1.491275	0.588118	1.287401
H315	H	0.914147	0.165200	0.724408
H316	H	1.414147	0.665200	1.224408
H317	H	0.836676	0.376038	0.663053
H318	H	1.336676	0.876038	1.163053
C319	C	0.825043	0.533335	0.387988
C320	C	1.325043	1.033335	0.887988
C321	C	0.753487	0.542462	0.382763
C322	C	1.253487	1.042462	0.882763
C323	C	0.709167	0.506332	0.426986
C324	C	1.209167	1.006332	0.926986
C325	C	0.736403	0.461076	0.476432
C326	C	1.236403	0.961076	0.976432
C327	C	0.807962	0.451947	0.481658
C328	C	1.307962	0.951947	0.981658
C329	C	0.852282	0.488077	0.437436
C330	C	1.352282	0.988077	0.937436
H331	H	0.733323	0.575965	0.346158
H332	H	1.233323	1.075965	0.846158
H333	H	0.656194	0.513090	0.423117
H334	H	1.156194	1.013090	0.923117
H335	H	0.703594	0.434330	0.509168
H336	H	1.203594	0.934330	1.009168
H337	H	0.828127	0.418443	0.518264
H338	H	1.328127	0.918443	1.018264
H339	H	0.905255	0.481319	0.441305
H340	H	1.405255	0.981319	0.941305
C341	C	0.825176	0.387457	0.935217
C342	C	1.325176	0.887457	1.435217
C343	C	0.780869	0.431738	0.971338
C344	C	1.280869	0.931738	1.471338
C345	C	0.736558	0.476045	0.935147
C346	C	1.236558	0.976045	1.435147
C347	C	0.736553	0.476071	0.862834
C348	C	1.236553	0.976071	1.362834
C349	C	0.780862	0.431788	0.826709
C350	C	1.280862	0.931788	1.326709
C351	C	0.825173	0.387481	0.862900
C352	C	1.325173	0.887481	1.362900
H353	H	0.780871	0.431721	1.024872
H354	H	1.280871	0.931721	1.524872
H355	H	0.703758	0.508826	0.961889
H356	H	1.203758	1.008826	1.461889
H357	H	0.703751	0.508870	0.836043
H358	H	1.203751	1.008870	1.336043
H359	H	0.780860	0.431806	0.773175
H360	H	1.280860	0.931806	1.273175
H361	H	0.857973	0.354700	0.836157
H362	H	1.357973	0.854700	1.336157
H363	H	0.836663	0.376078	0.543782
H364	H	1.336663	0.876078	1.043782
H365	H	0.982852	0.229795	1.064000
H366	H	1.482852	0.729795	1.564000
C367	C	0.994360	0.934070	0.219179
C368	C	1.494360	1.434070	0.719179
C369	C	1.043749	0.888800	0.246514
C370	C	1.543749	1.388800	0.746514
C371	C	1.088047	0.852618	0.202281
C372	C	1.588047	1.352618	0.702281
C373	C	1.082957	0.861707	0.130715
C374	C	1.582957	1.361707	0.630715
C375	C	1.033567	0.906979	0.103377
C376	C	1.533567	1.406979	0.603377
C377	C	0.989268	0.943160	0.147609
C378	C	1.489268	1.443160	0.647609
H379	H	1.047518	0.882071	0.299495
H380	H	1.547518	1.382071	0.799495
H381	H	1.124609	0.819105	0.222519
H382	H	1.624609	1.319105	0.722519
H383	H	1.115750	0.834923	0.097971
H384	H	1.615750	1.334923	0.597971
H385	H	1.029797	0.913708	0.050396
H386	H	1.529797	1.413708	0.550396
H387	H	0.952706	0.976674	0.127372
H388	H	1.452706	1.476674	0.627372
C389	C	0.825239	1.072227	0.388080
C390	C	1.325239	1.572227	0.888080
C391	C	0.775846	1.117494	0.360749
C392	C	1.275846	1.617494	0.860749
C393	C	0.731550	1.153676	0.404984
C394	C	1.231550	1.653676	0.904984
C395	C	0.736647	1.144590	0.476551
C396	C	1.236647	1.644590	0.976551
C397	C	0.786042	1.099321	0.503885
C398	C	1.286042	1.599321	1.003885
C399	C	0.830338	1.063139	0.459650
C400	C	1.330338	1.563139	0.959650
H401	H	0.772072	1.124221	0.307768
H402	H	1.272072	1.624221	0.807768
H403	H	0.694985	1.187187	0.384749
H404	H	1.194985	1.687187	0.884749
H405	H	0.703857	1.171374	0.509296
H406	H	1.203857	1.671374	1.009296
H407	H	0.789817	1.092593	0.556866
H408	H	1.289817	1.592593	1.056866
H409	H	0.866903	1.029628	0.479886
H410	H	1.366903	1.529628	0.979886
C411	C	0.541390	0.218418	0.219146
C412	C	1.041390	0.718418	0.719146
C413	C	0.469077	0.218406	0.219166
C414	C	0.969077	0.718406	0.719166
C415	C	0.432916	0.174049	0.174975
C416	C	0.932916	0.674049	0.674975
C417	C	0.469067	0.129706	0.130765
C418	C	0.969067	0.629706	0.630765
C419	C	0.541383	0.129716	0.130743
C420	C	1.041383	0.629716	0.630743
C421	C	0.577545	0.174073	0.174934
C422	C	1.077545	0.674073	0.674934
H423	H	0.442313	0.251233	0.251894
H424	H	0.942313	0.751233	0.751894
H425	H	0.379382	0.174042	0.174991
H426	H	0.879382	0.674042	0.674991
H427	H	0.442297	0.096870	0.098052
H428	H	0.942297	0.596870	0.598052
H429	H	0.568148	0.096889	0.098015
H430	H	1.068148	0.596889	0.598015
H431	H	0.631079	0.174080	0.174918
H432	H	1.131079	0.674080	0.674918
H433	H	0.670050	0.229954	0.230588
H434	H	1.170050	0.729954	0.730588
C435	C	0.140565	0.387672	0.388060
C436	C	0.640565	0.887672	0.888060
C437	C	0.095454	0.360464	0.437552
C438	C	0.595454	0.860464	0.937552
C439	C	0.059300	0.404810	0.481762
C440	C	0.559300	0.904810	0.981762
C441	C	0.068257	0.476366	0.476480
C442	C	0.568257	0.976366	0.976480
C443	C	0.113370	0.503578	0.426985
C444	C	0.613370	1.003578	0.926985
C445	C	0.149524	0.459232	0.382775
C446	C	0.649524	0.959232	0.882775
H447	H	0.088822	0.307491	0.441464
H448	H	0.588822	0.807491	0.941464
H449	H	0.025905	0.384666	0.518401
H450	H	0.525905	0.884666	1.018401
H451	H	0.041494	0.509194	0.509207
H452	H	0.541494	1.009194	1.009207
H453	H	0.120002	0.556551	0.423073
H454	H	0.620002	1.056551	0.923073
H455	H	0.182919	0.479376	0.346136
H456	H	0.682919	0.979376	0.846136
C457	C	0.278602	0.218372	0.219234
C458	C	0.778602	0.718372	0.719234
C459	C	0.269641	0.146815	0.224498
C460	C	0.769641	0.646815	0.724498
C461	C	0.305789	0.102478	0.180273
C462	C	0.805789	0.602478	0.680273
C463	C	0.350899	0.129696	0.130786
C464	C	0.850899	0.629696	0.630786
C465	C	0.359862	0.201256	0.125521
C466	C	0.859862	0.701256	0.625521
C467	C	0.323714	0.245594	0.169745
C468	C	0.823714	0.745594	0.669745
H469	H	0.236246	0.126663	0.261133
H470	H	0.736246	0.626663	0.761133
H471	H	0.299153	0.049504	0.184171
H472	H	0.799153	0.549504	0.684171
H473	H	0.377658	0.096875	0.098049
H474	H	0.877658	0.596875	0.598049
H475	H	0.393257	0.221409	0.088885
H476	H	0.893257	0.721409	0.588885
H477	H	0.330350	0.298568	0.165847
H478	H	0.830350	0.798568	0.665847
H479	H	0.982696	0.542633	0.230593
H480	H	1.482696	1.042633	0.730593
H481	H	0.982902	1.062737	0.230695
H482	H	1.482902	1.562737	0.730695
