data_functionalizedCrystal
_audit_creation_method	'MofGen! by Chris Wilmer'
_symmetry_space_group_name_H-M	'P1'
_symmetry_Int_Tables_number	1
_symmetry_cell_setting	triclinic
loop_
_symmetry_equiv_pos_as_xyz
  x,y,z
_cell_length_a	12.827893
_cell_length_b	16.120484
_cell_length_c	12.827885
_cell_angle_alpha	92.863938
_cell_angle_beta	89.980538
_cell_angle_gamma	92.925621
loop_
_atom_site_label
_atom_site_type_symbol
_atom_site_fract_x
_atom_site_fract_y
_atom_site_fract_z
Zn1	Zn	1.576506	-0.331862	-0.611895
Zn2	Zn	1.826506	-0.081862	-0.361895
Zn3	Zn	2.076506	0.168138	-0.111895
Zn4	Zn	2.326506	0.418138	0.138105
Zn5	Zn	1.567507	-0.471297	-0.445998
Zn6	Zn	1.817507	-0.221297	-0.195998
Zn7	Zn	2.067507	0.028703	0.054002
Zn8	Zn	2.317507	0.278703	0.304002
Zn9	Zn	1.401744	-0.331903	-0.437171
Zn10	Zn	1.651744	-0.081903	-0.187171
Zn11	Zn	1.901744	0.168097	0.062829
Zn12	Zn	2.151744	0.418097	0.312829
Zn13	Zn	1.392844	-0.471236	-0.620694
Zn14	Zn	1.642844	-0.221236	-0.370694
Zn15	Zn	1.892844	0.028764	-0.120694
Zn16	Zn	2.142844	0.278764	0.129306
O17	O	1.484650	-0.401575	-0.528940
O18	O	1.734650	-0.151575	-0.278940
O19	O	1.984650	0.098425	-0.028940
O20	O	2.234650	0.348425	0.221060
O21	O	1.721548	-0.350367	-0.589900
O22	O	1.971548	-0.100367	-0.339900
O23	O	2.221548	0.149633	-0.089900
O24	O	2.471548	0.399633	0.160100
O25	O	1.545476	-0.452849	-0.298594
O26	O	1.795476	-0.202849	-0.048594
O27	O	2.045476	0.047151	0.201406
O28	O	2.295476	0.297151	0.451406
O29	O	1.432418	-0.215232	-0.452972
O30	O	1.682418	0.034768	-0.202972
O31	O	1.932418	0.284768	0.047028
O32	O	2.182418	0.534768	0.297028
O33	O	1.714936	-0.452810	-0.468016
O34	O	1.964936	-0.202810	-0.218016
O35	O	2.214936	0.047190	0.031984
O36	O	2.464936	0.297190	0.281984
O37	O	1.560815	-0.215202	-0.581341
O38	O	1.810815	0.034798	-0.331341
O39	O	2.060815	0.284798	-0.081341
O40	O	2.310815	0.534798	0.168659
O41	O	1.423692	-0.350437	-0.292109
O42	O	1.673692	-0.100437	-0.042109
O43	O	1.923692	0.149563	0.207891
O44	O	2.173692	0.399563	0.457891
O45	O	1.254328	-0.350377	-0.461504
O46	O	1.504328	-0.100377	-0.211504
O47	O	1.754328	0.149623	0.038496
O48	O	2.004328	0.399623	0.288496
O49	O	1.417248	-0.452705	-0.765760
O50	O	1.667248	-0.202705	-0.515760
O51	O	1.917248	0.047295	-0.265760
O52	O	2.167248	0.297295	-0.015760
O53	O	1.247789	-0.452744	-0.596338
O54	O	1.497789	-0.202744	-0.346338
O55	O	1.747789	0.047256	-0.096338
O56	O	1.997789	0.297256	0.153662
O57	O	1.552184	-0.350307	-0.759296
O58	O	1.802184	-0.100307	-0.509296
O59	O	2.052184	0.149693	-0.259296
O60	O	2.302184	0.399693	-0.009296
O61	O	1.536846	-0.587955	-0.476549
O62	O	1.786846	-0.337955	-0.226549
O63	O	2.036846	-0.087955	0.023451
O64	O	2.286846	0.162045	0.273451
O65	O	1.408522	-0.587909	-0.604897
O66	O	1.658522	-0.337909	-0.354897
O67	O	1.908522	-0.087909	-0.104897
O68	O	2.158522	0.162091	0.145103
C69	C	1.213141	-0.401559	-0.528919
C70	C	1.463141	-0.151559	-0.278919
C71	C	1.713141	0.098441	-0.028919
C72	C	1.963141	0.348441	0.221081
C73	C	1.096987	-0.401573	-0.528936
C74	C	1.346987	-0.151573	-0.278936
C75	C	1.596987	0.098427	-0.028936
C76	C	1.846987	0.348427	0.221064
C77	C	1.048468	-0.350971	-0.589353
C78	C	1.298468	-0.100971	-0.339353
C79	C	1.548468	0.149029	-0.089353
C80	C	1.798468	0.399029	0.160647
C81	C	0.928417	-0.350984	-0.589372
C82	C	1.178417	-0.100984	-0.339372
C83	C	1.428417	0.149016	-0.089372
C84	C	1.678417	0.399016	0.160628
C85	C	1.470770	-0.618182	-0.542658
C86	C	1.720770	-0.368182	-0.292658
C87	C	1.970770	-0.118182	-0.042658
C88	C	2.220770	0.131818	0.207342
C89	C	1.464927	-0.710847	-0.548562
C90	C	1.714927	-0.460847	-0.298562
C91	C	1.964927	-0.210847	-0.048562
C92	C	2.214927	0.039153	0.201438
C93	C	1.454267	-0.880508	-0.559362
C94	C	1.704267	-0.630508	-0.309362
C95	C	1.954267	-0.380508	-0.059362
C96	C	2.204267	-0.130508	0.190638
C97	C	1.515221	-0.921800	-0.498534
C98	C	1.765221	-0.671800	-0.248534
C99	C	2.015221	-0.421800	0.001466
C100	C	2.265221	-0.171800	0.251466
C101	C	1.509289	-1.016205	-0.504544
C102	C	1.759289	-0.766205	-0.254544
C103	C	2.009289	-0.516205	-0.004544
C104	C	2.259289	-0.266205	0.245456
C105	C	1.460197	-0.786095	-0.553354
C106	C	1.710197	-0.536095	-0.303354
C107	C	1.960197	-0.286095	-0.053354
C108	C	2.210197	-0.036095	0.196646
C109	C	1.757219	-0.401591	-0.528961
C110	C	2.007219	-0.151591	-0.278961
C111	C	2.257219	0.098409	-0.028961
C112	C	2.507219	0.348409	0.221039
C113	C	1.873372	-0.401597	-0.528970
C114	C	2.123372	-0.151597	-0.278970
C115	C	2.373372	0.098403	-0.028970
C116	C	2.623372	0.348403	0.221030
C117	C	1.484727	-0.401495	-0.801505
C118	C	1.734727	-0.151495	-0.551505
C119	C	1.984727	0.098505	-0.301505
C120	C	2.234727	0.348505	-0.051505
C121	C	1.484760	-0.401460	-0.917656
C122	C	1.734760	-0.151460	-0.667656
C123	C	1.984760	0.098540	-0.417656
C124	C	2.234760	0.348540	-0.167656
C125	C	1.498613	-0.184121	-0.515190
C126	C	1.748613	0.065879	-0.265190
C127	C	1.998613	0.315879	-0.015190
C128	C	2.248613	0.565879	0.234810
C129	C	1.504563	-0.091456	-0.509331
C130	C	1.754563	0.158544	-0.259331
C131	C	2.004563	0.408544	-0.009331
C132	C	2.254563	0.658544	0.240669
C133	C	1.424518	-0.350774	-0.966231
C134	C	1.674518	-0.100774	-0.716231
C135	C	1.924518	0.149226	-0.466231
C136	C	2.174518	0.399226	-0.216231
C137	C	1.424551	-0.350737	-1.086279
C138	C	1.674551	-0.100737	-0.836279
C139	C	1.924551	0.149263	-0.586279
C140	C	2.174551	0.399263	-0.336279
C141	C	1.484637	-0.401594	-0.257431
C142	C	1.734637	-0.151594	-0.007431
C143	C	1.984637	0.098406	0.242569
C144	C	2.234637	0.348406	0.492569
C145	C	1.484822	-0.401393	-0.141266
C146	C	1.734822	-0.151393	0.108734
C147	C	1.984822	0.098607	0.358734
C148	C	2.234822	0.348607	0.608734
H149	H	1.095807	-0.307636	-0.641059
H150	H	1.345807	-0.057636	-0.391059
H151	H	1.595807	0.192364	-0.141059
H152	H	1.845807	0.442364	0.108941
Cl153	Cl	1.602663	-0.866919	-0.411159
Cl154	Cl	1.852663	-0.616919	-0.161159
Cl155	Cl	2.102663	-0.366919	0.088841
Cl156	Cl	2.352663	-0.116919	0.338841
Cl157	Cl	1.366823	-0.935391	-0.646725
Cl158	Cl	1.616823	-0.685391	-0.396725
Cl159	Cl	1.866823	-0.435391	-0.146725
Cl160	Cl	2.116823	-0.185391	0.103275
H161	H	1.372914	-0.307409	-0.918943
H162	H	1.622914	-0.057409	-0.668943
H163	H	1.872914	0.192591	-0.418943
H164	H	2.122914	0.442591	-0.168943
Cl165	Cl	1.564424	-0.468425	-0.990657
Cl166	Cl	1.814424	-0.218425	-0.740657
Cl167	Cl	2.064424	0.031575	-0.490657
Cl168	Cl	2.314424	0.281575	-0.240657
Cl169	Cl	1.344924	-0.283731	-1.150787
Cl170	Cl	1.594924	-0.033731	-0.900787
Cl171	Cl	1.844924	0.216269	-0.650787
Cl172	Cl	2.094924	0.466269	-0.400787
H173	H	0.886679	-0.307664	-0.641100
H174	H	1.136679	-0.057664	-0.391100
H175	H	1.386679	0.192336	-0.141100
H176	H	1.636679	0.442336	0.108900
Cl177	Cl	0.937798	-0.468494	-0.449110
Cl178	Cl	1.187798	-0.218494	-0.199110
Cl179	Cl	1.437798	0.031506	0.050890
Cl180	Cl	1.687798	0.281506	0.300890
H181	H	1.049649	-0.444903	-0.477223
H182	H	1.299649	-0.194903	-0.227223
H183	H	1.549649	0.055097	0.022777
H184	H	1.799649	0.305097	0.272777
H185	H	1.536404	-0.444787	-1.099487
H186	H	1.786404	-0.194787	-0.849487
H187	H	2.036404	0.055213	-0.599487
H188	H	2.286404	0.305213	-0.349487
