data_functionalizedCrystal
_audit_creation_method	'MofGen! by Chris Wilmer'
_symmetry_space_group_name_H-M	'P1'
_symmetry_Int_Tables_number	1
_symmetry_cell_setting	triclinic
loop_
_symmetry_equiv_pos_as_xyz
  x,y,z
_cell_length_a	10.540510
_cell_length_b	17.019294
_cell_length_c	9.616153
_cell_angle_alpha	86.118767
_cell_angle_beta	89.992871
_cell_angle_gamma	83.952460
loop_
_atom_site_label
_atom_site_type_symbol
_atom_site_fract_x
_atom_site_fract_y
_atom_site_fract_z
O1	O	1.684094	0.111052	-0.128951
O2	O	1.314504	0.121550	-0.130208
O3	O	1.509608	0.001526	-0.115828
O4	O	1.488989	0.231076	-0.143331
O5	O	1.509582	0.001528	0.115463
O6	O	1.314477	0.121553	0.101083
O7	O	1.684067	0.111054	0.102341
Zn8	Zn	1.499268	0.116304	0.138434
Zn9	Zn	1.499303	0.116301	-0.166302
O10	O	1.488962	0.231078	0.087960
C11	C	1.267199	0.120769	-0.014469
C12	C	1.126288	0.118428	-0.014189
C13	C	0.907466	0.201809	-0.024710
C14	C	1.054020	0.204306	-0.024480
C15	C	1.082234	0.074469	0.123153
C16	C	0.935504	0.072581	0.123482
C17	C	0.935757	0.070789	-0.139325
C18	C	1.082032	0.074863	-0.141551
C19	C	1.508813	-0.027866	0.003336
C20	C	1.506467	-0.115450	0.013820
C21	C	1.505382	-0.156593	-0.107330
C22	C	1.503169	-0.238886	-0.097474
C23	C	1.502051	-0.280035	0.033533
C24	C	1.503132	-0.238885	0.154692
C25	C	1.505335	-0.156593	0.144835
C26	C	1.495388	-0.528504	0.069602
C27	C	1.493189	-0.610802	0.079450
C28	C	1.493224	-0.610798	-0.172718
C29	C	1.495435	-0.528504	-0.182563
C30	C	1.496509	-0.487361	-0.061404
C31	C	1.499793	-0.364152	0.043610
C32	C	1.498758	-0.403245	-0.071483
C33	C	1.731371	0.111835	-0.013402
C34	C	1.872283	0.114176	-0.013691
C35	C	1.489758	0.260471	-0.031207
C36	C	1.492104	0.348054	-0.041700
N37	N	1.499253	0.116306	0.346408
N38	N	1.499328	0.116293	-0.374276
C39	C	1.394573	0.180295	0.559112
C40	C	1.394797	0.180535	0.397915
C41	C	1.631671	0.135021	0.402616
C42	C	1.631099	0.135474	0.563779
C43	C	1.472840	0.033390	0.576254
C44	C	1.469784	0.033928	0.414963
H45	H	0.894783	0.102625	0.218610
C46	C	0.877850	0.107457	-0.278959
H47	H	0.814414	0.149575	-0.261938
H48	H	0.840388	0.068181	-0.325831
H49	H	0.943030	0.127259	-0.335242
H50	H	1.502291	-0.272382	-0.196128
C51	C	1.506612	-0.111337	-0.251439
H52	H	1.505637	-0.147629	-0.322179
H53	H	1.581458	-0.084836	-0.259859
H54	H	1.433475	-0.073633	-0.261195
C55	C	0.905852	-0.014185	0.141993
H56	H	0.983452	-0.048123	0.149291
H57	H	0.858371	-0.026435	0.063817
H58	H	0.857458	-0.021525	0.224321
H59	H	1.492347	-0.644305	-0.271359
H60	H	1.654463	0.195957	0.594121
C61	C	1.147656	-0.010934	0.140038
H62	H	1.202555	-0.020561	0.063296
H63	H	1.084699	-0.047043	0.143137
H64	H	1.196100	-0.017880	0.224094
C65	C	1.123205	0.115711	0.251002
H66	H	1.096112	0.088671	0.333614
H67	H	1.085333	0.169013	0.245798
H68	H	1.213456	0.114881	0.252477
H69	H	1.711476	0.090736	0.608128
C70	C	1.345223	0.009340	0.634107
H71	H	1.306899	0.049639	0.688978
H72	H	1.360145	-0.038926	0.690100
H73	H	1.289876	0.002491	0.558920
H74	H	1.496348	-0.495007	-0.289243
H75	H	1.549234	-0.014247	0.620077
H76	H	1.110137	0.106847	-0.243091
H77	H	1.498886	-0.397665	0.150277
H78	H	1.082813	0.238696	-0.123280
H79	H	1.506200	-0.123094	0.243489
H80	H	1.499660	-0.369738	-0.178148
C81	C	1.491944	-0.656064	0.223564
H82	H	1.492886	-0.619774	0.294311
H83	H	1.565070	-0.693769	0.233330
H84	H	1.417087	-0.682562	0.231961
H85	H	1.296364	0.169275	0.359750
C86	C	1.496592	-0.483259	0.202872
H87	H	1.495628	-0.519555	0.282303
H88	H	1.423467	-0.445552	0.203611
H89	H	1.571450	-0.456763	0.204935
C90	C	1.566157	-0.033509	0.368614
H91	H	1.546049	-0.082539	0.411589
H92	H	1.649801	-0.024389	0.395461
H93	H	1.562063	-0.035211	0.270188
C94	C	1.501905	-0.284147	0.298797
H95	H	1.500452	-0.339051	0.287319
H96	H	1.428275	-0.265060	0.348320
H97	H	1.576258	-0.276261	0.349651
C98	C	0.850050	0.247013	-0.158069
H99	H	0.804099	0.212852	-0.208221
H100	H	0.916664	0.264795	-0.214585
H101	H	0.793933	0.291279	-0.133666
C102	C	0.907253	-0.016310	-0.130108
H103	H	0.856920	-0.026218	-0.050131
H104	H	0.985154	-0.049957	-0.123175
H105	H	0.862067	-0.026481	-0.211323
C106	C	1.149691	-0.009839	-0.142176
H107	H	1.206060	-0.019788	-0.064419
H108	H	1.196803	-0.015250	-0.225823
H109	H	1.087941	-0.046741	-0.136636
C110	C	1.261176	0.165330	0.613348
H111	H	1.268167	0.119919	0.677110
H112	H	1.207992	0.156790	0.537262
H113	H	1.225078	0.210049	0.659167
H114	H	1.411238	0.241453	0.592283
H115	H	1.411688	0.242041	0.351967
C116	C	1.739480	0.073774	0.358138
H117	H	1.704607	0.036157	0.304761
H118	H	1.780808	0.047446	0.438680
H119	H	1.799526	0.099937	0.303504
C120	C	1.663985	0.215806	0.338388
H121	H	1.596958	0.238232	0.277324
H122	H	1.741248	0.208804	0.287698
H123	H	1.673654	0.250229	0.410531
H124	H	1.372377	0.019742	0.378462
C125	C	0.847963	0.246748	0.097145
H126	H	0.801775	0.212335	0.154709
H127	H	0.791773	0.290812	0.061499
H128	H	0.913645	0.264806	0.150424
H129	H	1.081846	0.238907	0.066211
