data_functionalizedCrystal
_audit_creation_method	'MofGen! by Chris Wilmer'
_symmetry_space_group_name_H-M	'P1'
_symmetry_Int_Tables_number	1
_symmetry_cell_setting	triclinic
loop_
_symmetry_equiv_pos_as_xyz
  x,y,z
_cell_length_a	19.188925
_cell_length_b	19.188930
_cell_length_c	11.295483
_cell_angle_alpha	94.076039
_cell_angle_beta	85.907741
_cell_angle_gamma	83.143665
loop_
_atom_site_label
_atom_site_type_symbol
_atom_site_fract_x
_atom_site_fract_y
_atom_site_fract_z
O1	O	0.930866	0.082431	-0.099063
O2	O	0.727554	0.094169	-0.099062
O3	O	0.835076	-0.013354	-0.099039
O4	O	0.823344	0.189955	-0.099086
O5	O	0.825633	-0.003925	0.099009
O6	O	0.718111	0.103599	0.098987
O7	O	0.921423	0.091861	0.098986
Cu8	Cu	0.818904	0.098591	0.117070
Cu9	Cu	0.830073	0.087439	-0.117146
O10	O	0.813901	0.199385	0.098963
C11	C	0.696821	0.098505	-0.000037
C12	C	0.619317	0.097366	-0.000035
C13	C	0.057547	0.152829	-0.000051
C14	C	0.130371	0.153905	-0.000057
C15	C	0.175304	0.090814	-0.000041
C16	C	0.147411	0.026640	-0.000048
C17	C	0.074589	0.025565	-0.000054
N18	N	0.292766	0.048348	0.067387
N19	N	0.361943	0.049374	0.067394
C20	C	0.394713	0.094048	-0.000028
N21	N	0.355690	0.137670	-0.067442
N22	N	0.286506	0.136647	-0.067445
C23	C	0.254268	0.091972	-0.000036
C24	C	0.501562	0.159385	-0.000036
C25	C	0.574388	0.160458	-0.000050
C26	C	0.591426	0.033191	-0.000029
C27	C	0.518602	0.032120	-0.000027
C28	C	0.473674	0.095218	-0.000025
C29	C	0.829974	-0.034650	-0.000011
C30	C	0.828833	-0.112154	-0.000001
C31	C	0.891924	-0.157079	0.000004
C32	C	0.890853	-0.229904	-0.000015
C33	C	0.826687	-0.257799	-0.000015
C34	C	0.763588	-0.212865	-0.000027
C35	C	0.764661	-0.140042	-0.000020
N36	N	0.774426	-0.362594	0.067385
N37	N	0.773410	-0.431773	0.067380
C38	C	0.823450	-0.477209	-0.000040
N39	N	0.874553	-0.450854	-0.067440
N40	N	0.875570	-0.381668	-0.067431
C41	C	0.825516	-0.336762	-0.000024
C42	C	0.885384	-0.601100	-0.000057
C43	C	0.884311	-0.673926	-0.000083
C44	C	0.757044	-0.656884	-0.000083
C45	C	0.758119	-0.584060	-0.000069
C46	C	0.822291	-0.556172	-0.000050
C47	C	0.952156	0.087525	-0.000042
C48	C	1.029661	0.088664	-0.000051
C49	C	0.819003	0.220680	-0.000067
C50	C	0.820144	0.298184	-0.000085
N51	N	0.811054	0.106434	0.281804
N52	N	0.837928	0.079591	-0.281881
C53	C	0.894439	0.023094	0.531111
C54	C	0.888511	0.029026	0.655774
C55	C	0.793269	0.124226	0.655794
C56	C	0.799196	0.118294	0.531131
C57	C	0.849783	0.067727	0.468795
C58	C	0.855714	0.061799	0.344130
C59	C	0.760469	0.156995	0.344152
C60	C	0.754541	0.162927	0.468815
H61	H	0.020971	0.204209	-0.000055
H62	H	0.937637	-0.578392	-0.000047
H63	H	0.944178	-0.134378	0.000015
H64	H	0.896906	0.020627	0.293376
H65	H	0.942231	-0.266489	-0.000016
H66	H	0.711344	-0.235582	-0.000030
Cl67	Cl	0.704333	0.213111	0.265800
Cl68	Cl	0.944650	-0.027088	0.734111
H69	H	0.935690	-0.710504	-0.000085
Cl70	Cl	0.958040	-0.040467	0.452743
Cl71	Cl	0.203898	-0.052675	-0.000033
Cl72	Cl	0.685340	-0.083562	-0.000026
H73	H	0.153080	0.206158	-0.000046
Cl74	Cl	0.676377	-0.691946	-0.000091
Cl75	Cl	0.729670	0.187785	0.734172
Cl76	Cl	0.483543	-0.048550	-0.000032
Cl77	Cl	0.445079	0.238707	-0.000038
Cl78	Cl	0.678800	-0.527580	-0.000070
H79	H	0.713352	0.204096	0.519584
H80	H	0.051885	-0.026687	-0.000054
H81	H	0.628011	-0.018179	-0.000024
H82	H	0.597091	0.212710	-0.000059
