data_functionalizedCrystal
_audit_creation_method	'MofGen! by Chris Wilmer'
_symmetry_space_group_name_H-M	'P1'
_symmetry_Int_Tables_number	1
_symmetry_cell_setting	triclinic
loop_
_symmetry_equiv_pos_as_xyz
  x,y,z
_cell_length_a	16.625546
_cell_length_b	14.908792
_cell_length_c	14.908308
_cell_angle_alpha	90.212689
_cell_angle_beta	93.264070
_cell_angle_gamma	86.688905
loop_
_atom_site_label
_atom_site_type_symbol
_atom_site_fract_x
_atom_site_fract_y
_atom_site_fract_z
Zn1	Zn	-0.282062	-1.345300	-0.587853
Zn2	Zn	-0.408712	-1.353876	-0.437487
Zn3	Zn	-0.281184	-1.203614	-0.428821
Zn4	Zn	-0.424146	-1.194902	-0.579104
O5	O	-0.349026	-1.274423	-0.508316
O6	O	-0.292770	-1.472266	-0.575195
O7	O	-0.384969	-1.341179	-0.310515
O8	O	-0.168467	-1.222466	-0.449951
O9	O	-0.385820	-1.478566	-0.464722
O10	O	-0.169112	-1.326563	-0.566791
O11	O	-0.291275	-1.230782	-0.304147
O12	O	-0.306241	-1.076631	-0.441467
O13	O	-0.412125	-1.207617	-0.706087
O14	O	-0.411274	-1.070230	-0.551880
O15	O	-0.307736	-1.318114	-0.712515
O16	O	-0.523593	-1.332731	-0.456239
O17	O	-0.534932	-1.215933	-0.560284
C18	C	-0.360337	-1.040804	-0.494784
C19	C	-0.365197	-0.940860	-0.489017
C20	C	-0.420401	-0.803280	-0.423282
C21	C	-0.415839	-0.897187	-0.428700
C22	C	-0.319113	-0.890620	-0.543917
C23	C	-0.323676	-0.796714	-0.538498
C24	C	-0.374323	-0.753047	-0.478179
C25	C	-0.378889	-0.659138	-0.472766
C26	C	-0.282160	-0.652574	-0.587977
C27	C	-0.277597	-0.746480	-0.593395
C28	C	-0.558519	-1.274340	-0.508274
C29	C	-0.648139	-1.274385	-0.508290
C30	C	-0.976312	-1.274537	-0.508393
C31	C	-0.885004	-1.274491	-0.508367
C32	C	-0.812228	-1.274460	-0.508341
C33	C	-0.720915	-1.274416	-0.508316
C34	C	-0.138715	-1.274530	-0.508380
C35	C	-0.049093	-1.274575	-0.508407
C36	C	-0.361750	-1.260937	-0.742838
C37	C	-0.367172	-1.255190	-0.842777
C38	C	-0.337664	-0.508954	-0.521895
C39	C	-0.332805	-0.608898	-0.527665
C40	C	-0.268642	-1.359450	-1.037268
C41	C	-0.273734	-1.354053	-1.131170
C42	C	-0.382443	-1.238996	-1.124484
C43	C	-0.377351	-1.244393	-1.030582
C44	C	-0.320450	-1.304623	-0.986978
C45	C	-0.315363	-1.310023	-0.893074
C46	C	-0.424067	-1.194963	-0.886390
C47	C	-0.429159	-1.189566	-0.980292
C48	C	-0.336291	-1.287908	-0.274710
C49	C	-0.330633	-1.293829	-0.174782
H50	H	-0.453360	-0.938084	-0.383996
H51	H	-0.222315	-1.408496	-1.001765
O52	O	-0.269982	-0.933187	-0.602479
C53	C	-0.275818	-1.026844	-0.595463
H54	H	-0.335778	-1.041341	-0.566633
H55	H	-0.272356	-1.058686	-0.664879
H56	H	-0.224040	-1.056238	-0.549207
O57	O	-0.260048	-1.368405	-0.850610
C58	C	-0.207496	-1.320350	-0.793362
H59	H	-0.238480	-1.253007	-0.775338
H60	H	-0.191328	-1.360775	-0.729455
H61	H	-0.150188	-1.308409	-0.828998
H62	H	-0.420131	-0.623586	-0.423654
H63	H	-0.244641	-0.611663	-0.632680
H64	H	-0.231545	-1.398697	-1.172113
H65	H	-0.466254	-1.150320	-0.845434
H66	H	-0.428769	-1.189960	-1.160004
O67	O	-0.484511	-1.131189	-1.022702
C68	C	-0.537037	-1.179237	-1.079988
H69	H	-0.537049	-1.251680	-1.055790
H70	H	-0.600725	-1.146630	-1.079157
H71	H	-0.515813	-1.178253	-1.151340
O72	O	-0.228523	-0.788938	-0.652085
C73	C	-0.275018	-0.839941	-0.713181
H74	H	-0.340200	-0.811309	-0.716969
H75	H	-0.249661	-0.837051	-0.782500
H76	H	-0.272789	-0.912702	-0.689479
H77	H	-0.461647	-0.767726	-0.374175
