data_functionalizedCrystal
_audit_creation_method	'MofGen! by Chris Wilmer'
_symmetry_space_group_name_H-M	'P1'
_symmetry_Int_Tables_number	1
_symmetry_cell_setting	triclinic
loop_
_symmetry_equiv_pos_as_xyz
  x,y,z
_cell_length_a	14.908979
_cell_length_b	13.897448
_cell_length_c	14.908308
_cell_angle_alpha	86.732812
_cell_angle_beta	83.628929
_cell_angle_gamma	93.319350
loop_
_atom_site_label
_atom_site_type_symbol
_atom_site_fract_x
_atom_site_fract_y
_atom_site_fract_z
Zn1	Zn	1.354255	-0.327024	0.432038
Zn2	Zn	1.362900	-0.478470	0.280686
Zn3	Zn	1.211629	-0.327071	0.289418
Zn4	Zn	1.202871	-0.498163	0.440718
O5	O	1.282914	-0.407682	0.360715
O6	O	1.482064	-0.338853	0.404675
O7	O	1.350116	-0.450164	0.155183
O8	O	1.230596	-0.192081	0.308359
O9	O	1.488415	-0.450119	0.293477
O10	O	1.335383	-0.192047	0.413141
O11	O	1.238978	-0.338931	0.161598
O12	O	1.083805	-0.358028	0.316775
O13	O	1.215670	-0.483684	0.566228
O14	O	1.077371	-0.483729	0.427934
O15	O	1.326891	-0.357949	0.559851
O16	O	1.341624	-0.616065	0.301893
O17	O	1.224052	-0.630534	0.419467
C18	C	1.047745	-0.423021	0.374244
C19	C	0.947138	-0.429607	0.380054
C20	C	0.802017	-0.504424	0.446012
C21	C	0.896546	-0.498236	0.440562
C22	C	0.903195	-0.367164	0.324990
C23	C	0.808666	-0.373352	0.330441
C24	C	0.758080	-0.441983	0.390955
C25	C	0.663549	-0.448166	0.396409
C26	C	0.670200	-0.317099	0.280834
C27	C	0.764729	-0.310911	0.275383
C28	C	1.282849	-0.658299	0.360693
C29	C	1.282903	-0.765510	0.360709
C30	C	1.282994	-0.961803	0.360760
C31	C	1.282941	-0.852572	0.360734
C32	C	1.519000	-0.392284	0.347133
C33	C	1.619606	-0.385722	0.341346
C34	C	1.269340	-0.423008	0.596799
C35	C	1.263555	-0.429539	0.697404
C36	C	1.283002	-0.156086	0.360756
C37	C	1.283040	-0.048871	0.360773
C38	C	1.296487	-0.392343	0.125546
C39	C	1.302447	-0.385528	0.024931
C40	C	1.368498	-0.310861	0.879814
C41	C	1.363065	-0.316994	0.974341
C42	C	1.247255	-0.447932	0.980988
C43	C	1.252687	-0.441799	0.886461
C44	C	1.313311	-0.373263	0.835877
C45	C	1.318747	-0.367135	0.741348
C46	C	1.202933	-0.498068	0.747997
C47	C	1.197500	-0.504201	0.842524
H48	H	0.622363	-0.504045	0.445686
H49	H	0.760828	-0.560298	0.495293
F50	F	1.182733	-0.520862	1.034838
H51	H	0.805930	-0.255036	0.226112
F52	F	0.943303	-0.564696	0.499159
F53	F	0.957047	-0.294133	0.260587
H54	H	1.417865	-0.255060	0.838627
F55	F	0.623433	-0.250638	0.222237
F56	F	1.383271	-0.294195	0.687514
F57	F	1.132982	-0.577137	0.896369
H58	H	1.157998	-0.548882	0.712213
H59	H	1.408002	-0.266178	1.010111
