data_functionalizedCrystal
_audit_creation_method	'MofGen! by Chris Wilmer'
_symmetry_space_group_name_H-M	'P1'
_symmetry_Int_Tables_number	1
_symmetry_cell_setting	triclinic
loop_
_symmetry_equiv_pos_as_xyz
  x,y,z
_cell_length_a	10.685901
_cell_length_b	13.032721
_cell_length_c	10.686551
_cell_angle_alpha	86.664748
_cell_angle_beta	90.348291
_cell_angle_gamma	92.306733
loop_
_atom_site_label
_atom_site_type_symbol
_atom_site_fract_x
_atom_site_fract_y
_atom_site_fract_z
Zn1	Zn	1.902383	-0.495731	0.643219
Zn2	Zn	1.860300	-0.679262	0.463580
Zn3	Zn	1.676781	-0.493806	0.449279
Zn4	Zn	1.670428	-0.653061	0.685109
O5	O	1.777473	-0.580465	0.560297
O6	O	2.070678	-0.531848	0.607844
O7	O	1.821002	-0.664820	0.287808
O8	O	1.726979	-0.350604	0.451490
O9	O	2.039760	-0.666688	0.475864
O10	O	1.892728	-0.352019	0.593977
O11	O	1.686172	-0.528566	0.277301
O12	O	1.502061	-0.503160	0.492109
O13	O	1.716150	-0.622031	0.853427
O14	O	1.497393	-0.620164	0.665371
O15	O	1.886567	-0.506442	0.822651
O16	O	1.814842	-0.819243	0.516483
O17	O	1.675344	-0.799993	0.679239
C18	C	1.454642	-0.558610	0.581735
C19	C	1.316533	-0.549284	0.590939
C20	C	1.739873	-0.846816	0.603983
C21	C	1.723904	-0.960767	0.622706
C22	C	1.785878	-1.021061	0.550577
C23	C	1.769375	-1.138836	0.569926
C24	C	2.101564	-0.602406	0.538777
C25	C	2.239673	-0.611755	0.529606
C26	C	1.805344	-0.561529	0.884383
C27	C	1.817222	-0.553459	1.022490
C28	C	1.815256	-0.313075	0.516465
C29	C	1.831357	-0.199129	0.497787
C30	C	1.749792	-0.599258	0.237454
C31	C	1.738196	-0.607055	0.099285
H32	H	1.279527	-0.672378	0.470063
C33	C	1.920909	-0.483132	1.076398
H34	H	1.915559	-0.486747	1.165262
H35	H	2.000469	-0.505013	1.052096
H36	H	1.910650	-0.414241	1.045106
C37	C	1.635724	-1.008806	0.725486
H38	H	1.598989	-0.955706	0.768237
H39	H	1.571714	-1.049761	0.688333
H40	H	1.682079	-1.050576	0.783319
H41	H	1.661455	-0.659117	1.059378
H42	H	1.276672	-0.488666	0.650498
C43	C	1.874062	-0.973017	0.447802
H44	H	1.873579	-0.900162	0.448275
H45	H	1.956677	-0.995033	0.463352
H46	H	1.846315	-0.994207	0.368362
C47	C	1.681190	-1.186871	0.672712
H48	H	1.644455	-1.133770	0.715462
H49	H	1.617180	-1.227826	0.635558
H50	H	1.727545	-1.228640	0.730545
C51	C	1.919516	-1.151091	0.394980
H52	H	1.919026	-1.078236	0.395443
H53	H	2.002140	-1.173099	0.410502
H54	H	1.891742	-1.172293	0.315554
