data_functionalizedCrystal
_audit_creation_method	'MofGen! by Chris Wilmer'
_symmetry_space_group_name_H-M	'P1'
_symmetry_Int_Tables_number	1
_symmetry_cell_setting	triclinic
loop_
_symmetry_equiv_pos_as_xyz
  x,y,z
_cell_length_a	17.038272
_cell_length_b	16.992694
_cell_length_c	16.053802
_cell_angle_alpha	92.750953
_cell_angle_beta	92.751609
_cell_angle_gamma	89.110110
loop_
_atom_site_label
_atom_site_type_symbol
_atom_site_fract_x
_atom_site_fract_y
_atom_site_fract_z
O1	O	0.163385	-1.054593	-0.069325
O2	O	0.496719	-0.721260	0.264008
O3	O	0.830052	-0.387926	0.597342
O4	O	0.161558	-0.826187	-0.069350
O5	O	0.494891	-0.492854	0.263984
O6	O	0.828225	-0.159520	0.597317
O7	O	0.048571	-0.939032	-0.069331
O8	O	0.381905	-0.605699	0.264003
O9	O	0.715238	-0.272366	0.597336
O10	O	0.276372	-0.941748	-0.069344
O11	O	0.609705	-0.608414	0.263990
O12	O	0.943039	-0.275081	0.597323
O13	O	0.054763	-0.932819	0.069527
O14	O	0.388097	-0.599486	0.402860
O15	O	0.721430	-0.266152	0.736194
O16	O	0.167750	-0.819974	0.069508
O17	O	0.501083	-0.486641	0.402842
O18	O	0.834416	-0.153307	0.736175
O19	O	0.169577	-1.048380	0.069533
O20	O	0.502911	-0.715047	0.402866
O21	O	0.836244	-0.381713	0.736200
Zn22	Zn	0.169646	-0.933190	0.091567
Zn23	Zn	0.502980	-0.599857	0.424901
Zn24	Zn	0.836313	-0.266524	0.758234
Zn25	Zn	0.161489	-0.941376	-0.091384
Zn26	Zn	0.494822	-0.608043	0.241949
Zn27	Zn	0.828155	-0.274710	0.575283
O28	O	0.282564	-0.935535	0.069514
O29	O	0.615897	-0.602201	0.402848
O30	O	0.949230	-0.268868	0.736181
C31	C	0.162304	-0.793711	0.000076
C32	C	0.495637	-0.460378	0.333410
C33	C	0.828971	-0.127045	0.666743
C34	C	0.155293	-0.706200	0.000067
C35	C	0.488627	-0.372867	0.333400
C36	C	0.821960	-0.039533	0.666734
C37	C	0.022384	-0.933456	0.000098
C38	C	0.355717	-0.600123	0.333431
C39	C	0.689051	-0.266790	0.666764
C40	C	-0.064871	-0.926089	0.000097
C41	C	0.268462	-0.592756	0.333430
C42	C	0.601796	-0.259422	0.666763
C43	C	0.168831	-1.080856	0.000105
C44	C	0.502164	-0.747522	0.333439
C45	C	0.835498	-0.414189	0.666772
C46	C	0.175841	-1.168367	0.000109
C47	C	0.509175	-0.835034	0.333442
C48	C	0.842508	-0.501701	0.666776
C49	C	-0.110741	-0.993729	0.000105
C50	C	0.222592	-0.660395	0.333438
C51	C	0.555926	-0.327062	0.666772
C52	C	-0.192727	-0.986802	0.000096
C53	C	0.140607	-0.653469	0.333430
C54	C	0.473940	-0.320135	0.666763
C55	C	-0.228840	-0.912235	0.000085
C56	C	0.104493	-0.578902	0.333419
C57	C	0.437826	-0.245568	0.666752
C58	C	-0.182964	-0.844590	0.000075
C59	C	0.150369	-0.511257	0.333408
C60	C	0.483702	-0.177924	0.666741
C61	C	-0.100981	-0.851518	0.000077
C62	C	0.232353	-0.518185	0.333411
C63	C	0.565686	-0.184851	0.666744
C64	C	-0.476135	-0.887761	0.000071
C65	C	-0.142801	-0.554428	0.333405
C66	C	0.190532	-0.221094	0.666738
C67	C	-0.558124	-0.880838	0.000071
C68	C	-0.224791	-0.547505	0.333404
C69	C	0.108542	-0.214172	0.666738
C70	C	-0.567881	-1.023051	0.000091
C71	C	-0.234547	-0.689718	0.333424
C72	C	0.098786	-0.356384	0.666758
C73	C	-0.485895	-1.029972	0.000099
C74	C	-0.152561	-0.696639	0.333432
C75	C	0.180772	-0.363305	0.666765
C76	C	-0.440026	-0.962328	0.000084
C77	C	-0.106693	-0.628994	0.333417
C78	C	0.226640	-0.295661	0.666750
C79	C	-0.312643	-0.905153	0.000079
C80	C	0.020691	-0.571820	0.333413
C81	C	0.354024	-0.238486	0.666746
C82	C	-0.356226	-0.969410	0.000084
C83	C	-0.022893	-0.636077	0.333417
C84	C	0.310441	-0.302744	0.666751
C85	C	0.308751	-0.941111	0.000084
C86	C	0.642084	-0.607777	0.333417
C87	C	0.975418	-0.274444	0.666750
C88	C	0.396006	-0.948478	0.000079
C89	C	0.729339	-0.615145	0.333413
C90	C	1.062673	-0.281811	0.666746
N91	N	0.175214	-0.927609	0.216427
N92	N	0.508547	-0.594276	0.549760
N93	N	0.841881	-0.260943	0.883093
C94	C	0.222933	-0.660472	0.000064
C95	C	0.556267	-0.327138	0.333397
C96	C	0.889600	0.006195	0.666731
C97	C	0.216342	-0.578245	0.000076
C98	C	0.549676	-0.244911	0.333409
C99	C	0.883009	0.088422	0.666742
C100	C	0.142110	-0.541748	0.000085
C101	C	0.475444	-0.208415	0.333418
C102	C	0.808777	0.124919	0.666752
C103	C	0.074465	-0.587482	0.000091
C104	C	0.407799	-0.254149	0.333424
C105	C	0.741132	0.079184	0.666757
C106	C	0.081057	-0.669707	0.000085
C107	C	0.414391	-0.336374	0.333418
C108	C	0.747724	-0.003041	0.666751
C109	C	0.114789	-0.296327	0.000109
C110	C	0.448122	0.037007	0.333442
C111	C	0.781455	0.370340	0.666775
C112	C	0.108201	-0.214096	0.000112
C113	C	0.441535	0.119238	0.333446
C114	C	0.774868	0.452571	0.666779
C115	C	0.250079	-0.204864	0.000099
C116	C	0.583413	0.128470	0.333432
C117	C	0.916746	0.461803	0.666766
C118	C	0.256665	-0.287091	0.000088
C119	C	0.589998	0.046242	0.333421
C120	C	0.923331	0.379576	0.666755
C121	C	0.189020	-0.332818	0.000098
C122	C	0.522353	0.000516	0.333431
C123	C	0.855686	0.333849	0.666765
N124	N	0.135371	-0.457699	0.000094
N125	N	0.468705	-0.124366	0.333428
N126	N	0.802038	0.208967	0.666761
N127	N	0.195760	-0.416865	0.000095
N128	N	0.529093	-0.083531	0.333428
N129	N	0.862426	0.249802	0.666761
N130	N	0.155915	-0.946963	-0.216243
N131	N	0.489249	-0.613630	0.117090
N132	N	0.822582	-0.280297	0.450423
C133	C	0.127157	-0.975645	0.260129
C134	C	0.460491	-0.642312	0.593462
C135	C	0.793824	-0.308978	0.926795
C136	C	0.131060	-0.971749	0.347535
C137	C	0.464393	-0.638416	0.680868
C138	C	0.797726	-0.305082	1.014201
C139	C	0.183023	-0.919820	0.391237
C140	C	0.516357	-0.586487	0.724571
C141	C	0.849690	-0.253154	1.057904
C142	C	0.231082	-0.871779	0.347529
C143	C	0.564415	-0.538446	0.680863
C144	C	0.897748	-0.205113	1.014196
C145	C	0.227175	-0.875672	0.260125
C146	C	0.560508	-0.542339	0.593458
C147	C	0.893841	-0.209005	0.926791
C148	C	0.200067	-0.902815	0.652644
C149	C	0.533400	-0.569482	0.985977
C150	C	0.866734	-0.236148	1.319311
C151	C	0.203972	-0.898928	0.740055
C152	C	0.537305	-0.565594	1.073388
C153	C	0.870639	-0.232261	1.406721
C154	C	0.103948	-0.998897	0.740054
C155	C	0.437282	-0.665563	1.073388
C156	C	0.770615	-0.332230	1.406721
C157	C	0.100050	-1.002788	0.652648
C158	C	0.433383	-0.669455	0.985981
C159	C	0.766716	-0.336121	1.319315
C160	C	0.148105	-0.954744	0.608948
C161	C	0.481438	-0.621411	0.942281
C162	C	0.814772	-0.288077	1.275614
N163	N	0.187015	-0.915838	0.480580
N164	N	0.520348	-0.582505	0.813914
N165	N	0.853682	-0.249172	1.147247
N166	N	0.144109	-0.958723	0.519606
N167	N	0.477442	-0.625389	0.852939
N168	N	0.810775	-0.292056	1.186273
H169	H	-0.081343	-1.054449	0.000119
H170	H	0.251990	-0.721116	0.333452
H171	H	0.585323	-0.387782	0.666786
Cl172	Cl	0.034725	-1.068071	0.597707
Cl173	Cl	0.368058	-0.734738	0.931041
Cl174	Cl	0.701391	-0.401404	1.264374
Cl175	Cl	0.043536	-1.059288	0.794995
Cl176	Cl	0.376870	-0.725955	1.128329
Cl177	Cl	0.710203	-0.392621	1.461662
H178	H	-0.605236	-1.078123	0.000102
H179	H	-0.271902	-0.744790	0.333435
H180	H	0.061431	-0.411456	0.666768
Cl181	Cl	0.301380	-0.520761	0.000067
Cl182	Cl	0.634713	-0.187428	0.333400
Cl183	Cl	0.968046	0.145906	0.666733
H184	H	0.059707	-0.333548	0.000118
H185	H	0.393040	-0.000215	0.333451
H186	H	0.726374	0.333119	0.666784
H187	H	-0.326819	-1.030124	0.000074
H188	H	0.006514	-0.696790	0.333408
H189	H	0.339847	-0.363457	0.666741
H190	H	0.246290	-0.856639	0.775633
H191	H	0.579623	-0.523306	1.108967
H192	H	0.912957	-0.189972	1.442300
Cl193	Cl	0.349988	-0.332966	0.000071
Cl194	Cl	0.683322	0.000367	0.333404
Cl195	Cl	1.016655	0.333700	0.666738
Cl196	Cl	-0.603523	-0.787089	0.000063
Cl197	Cl	-0.270190	-0.453756	0.333396
Cl198	Cl	0.063144	-0.120423	0.666729
Cl199	Cl	0.260481	-0.842422	0.597712
Cl200	Cl	0.593814	-0.509088	0.931046
Cl201	Cl	0.927148	-0.175755	1.264379
Cl202	Cl	0.296404	-0.806493	0.402468
Cl203	Cl	0.629738	-0.473159	0.735801
Cl204	Cl	0.963071	-0.139826	1.069135
H205	H	0.091928	-1.010863	0.383116
H206	H	0.425261	-0.677530	0.716450
H207	H	0.758595	-0.344196	1.049783
H208	H	-0.342056	-0.844440	0.000072
H209	H	-0.008722	-0.511106	0.333406
H210	H	0.324611	-0.177773	0.666739
H211	H	-0.230071	-1.041882	0.000105
H212	H	0.103263	-0.708548	0.333438
H213	H	0.436596	-0.375215	0.666771
Cl214	Cl	-0.018856	-0.541600	0.000107
Cl215	Cl	0.314478	-0.208267	0.333441
Cl216	Cl	0.647811	0.125066	0.666774
Cl217	Cl	0.335113	-0.147374	0.000090
Cl218	Cl	0.668446	0.185959	0.333423
Cl219	Cl	1.001779	0.519293	0.666756
H220	H	-0.438798	-0.832680	0.000059
H221	H	-0.105465	-0.499346	0.333393
H222	H	0.227869	-0.166013	0.666726
H223	H	-0.456497	-1.090692	0.000108
H224	H	-0.123164	-0.757359	0.333441
H225	H	0.210170	-0.424026	0.666774
Cl226	Cl	-0.228365	-0.750848	0.000051
Cl227	Cl	0.104968	-0.417515	0.333384
Cl228	Cl	0.438301	-0.084182	0.666717
Cl229	Cl	-0.043315	-0.766481	0.000064
Cl230	Cl	0.290018	-0.433148	0.333397
Cl231	Cl	0.623351	-0.099815	0.666731
H232	H	0.283381	-0.690181	0.000056
H233	H	0.616714	-0.356847	0.333389
H234	H	0.950048	-0.023514	0.666723
H235	H	0.266306	-0.836555	0.224543
H236	H	0.599640	-0.503222	0.557877
H237	H	0.932973	-0.169889	0.891210
Cl238	Cl	0.014875	-0.168215	0.000142
Cl239	Cl	0.348208	0.165119	0.333476
Cl240	Cl	0.681542	0.498452	0.666809
Cl241	Cl	0.061832	-1.040934	0.205197
Cl242	Cl	0.395165	-0.707601	0.538531
Cl243	Cl	0.728499	-0.374268	0.871864
H244	H	0.025977	-0.706939	0.000087
H245	H	0.359311	-0.373606	0.333420
H246	H	0.692644	-0.040272	0.666753
