data_functionalizedCrystal
_audit_creation_method	'MofGen! by Chris Wilmer'
_symmetry_space_group_name_H-M	'P1'
_symmetry_Int_Tables_number	1
_symmetry_cell_setting	triclinic
loop_
_symmetry_equiv_pos_as_xyz
  x,y,z
_cell_length_a	16.109318
_cell_length_b	10.654543
_cell_length_c	14.586319
_cell_angle_alpha	90.000287
_cell_angle_beta	90.000075
_cell_angle_gamma	96.024632
loop_
_atom_site_label
_atom_site_type_symbol
_atom_site_fract_x
_atom_site_fract_y
_atom_site_fract_z
O1	O	1.104080	-0.161523	-0.076157
O2	O	0.862139	-0.181589	-0.076175
O3	O	0.988675	0.011259	-0.076167
O4	O	0.977543	-0.354371	-0.076164
O5	O	0.988666	0.011262	0.076313
O6	O	0.862130	-0.181586	0.076306
O7	O	1.104071	-0.161520	0.076324
Cu8	Cu	0.983099	-0.171553	0.090238
Cu9	Cu	0.983110	-0.171556	-0.090088
O10	O	0.977535	-0.354368	0.076317
C11	C	0.831155	-0.180771	0.000064
C12	C	0.738846	-0.178323	0.000056
C13	C	0.439730	-0.170417	-0.083045
C14	C	0.526465	-0.172709	-0.083050
C15	C	0.526474	-0.172689	0.083193
C16	C	0.439741	-0.170388	0.083197
C17	C	0.396371	-0.169258	0.000076
C18	C	0.569838	-0.173851	0.000066
C19	C	0.663880	-0.176336	0.000060
C20	C	0.302323	-0.166770	0.000081
C21	C	0.987854	0.058047	0.000071
C22	C	0.985412	0.197458	0.000063
C23	C	1.059914	0.277948	0.000065
C24	C	1.057615	0.408938	0.000048
C25	C	0.906305	0.378936	0.000031
C26	C	0.908605	0.247948	0.000041
C27	C	1.145365	0.605965	-0.053380
C28	C	1.219871	0.686459	-0.053362
C29	C	1.287408	0.657198	0.000080
C30	C	1.280442	0.547445	0.053526
C31	C	1.205935	0.466956	0.053517
C32	C	1.138401	0.496216	0.000053
C33	C	0.820861	0.050920	0.053477
C34	C	0.746352	-0.029570	0.053474
C35	C	0.678809	-0.000313	0.000038
C36	C	0.685766	0.109443	-0.053395
C37	C	0.760274	0.189934	-0.053392
C38	C	0.827819	0.160667	0.000042
C39	C	1.135055	-0.162338	0.000084
C40	C	1.227364	-0.164787	0.000085
N41	N	0.983098	-0.171550	0.217070
C42	C	0.978359	0.598844	0.000066
C43	C	0.980813	0.459436	0.000036
N44	N	0.983118	-0.171549	-0.216920
C45	C	1.039147	-0.086185	0.452079
C46	C	1.039149	-0.086182	0.548060
C47	C	0.927063	-0.256918	0.548064
C48	C	0.927057	-0.256914	0.452084
C49	C	0.983104	-0.171549	0.404094
C50	C	0.983112	-0.171550	0.596055
C51	C	0.983114	-0.171547	0.700122
C52	C	0.983101	-0.171550	0.300021
H53	H	0.404437	-0.169443	0.150888
H54	H	0.881416	-0.326428	0.413012
O55	O	0.739649	-0.136066	0.105511
C56	C	0.744411	-0.224078	0.257365
C57	C	0.752046	-0.103376	0.198544
H58	H	0.754413	-0.197689	0.332595
H59	H	0.793538	-0.287328	0.234910
H60	H	0.679564	-0.276579	0.248135
H61	H	0.816862	-0.050773	0.207745
H62	H	0.702872	-0.040217	0.221013
O63	O	0.568587	-0.173571	0.163955
C64	C	0.603888	-0.065567	0.306058
C65	C	0.556175	-0.064391	0.214618
H66	H	0.593856	0.022682	0.347053
H67	H	0.673343	-0.067333	0.291831
H68	H	0.579740	-0.152983	0.347015
H69	H	0.580253	0.023012	0.173615
H70	H	0.486727	-0.062691	0.228909
H71	H	1.084783	-0.016675	0.413008
O72	O	1.345973	0.519087	0.105589
C73	C	1.396351	0.480277	0.257447
C74	C	1.322076	0.512432	0.198598
H75	H	1.377052	0.474860	0.332655
H76	H	1.450811	0.556659	0.248356
H77	H	1.416166	0.385408	0.234881
H78	H	1.302188	0.607267	0.221127
H79	H	1.267664	0.435973	0.207695
O80	O	0.831648	0.427835	0.000138
C81	C	0.701633	0.442336	0.079144
C82	C	0.786148	0.386857	0.079124
H83	H	0.664830	0.409249	0.143007
H84	H	0.664728	0.409139	0.015372
H85	H	0.712804	0.549781	0.079095
H86	H	0.775053	0.279411	0.079206
H87	H	0.823026	0.420153	0.142890
O88	O	0.620089	0.137654	-0.105288
C89	C	0.478443	0.075298	-0.152619
C90	C	0.552767	0.043186	-0.093829
H91	H	0.423988	-0.001047	-0.143360
H92	H	0.497623	0.080559	-0.227867
H93	H	0.458678	0.170218	-0.130102
H94	H	0.572567	-0.051742	-0.116265
H95	H	0.533545	0.038009	-0.018593
H96	H	0.765939	0.279294	-0.096913
H97	H	0.404420	-0.169496	-0.150728
O98	O	0.568450	-0.173891	-0.163876
C99	C	0.559288	-0.173600	-0.328765
C100	C	0.511635	-0.172290	-0.237293
H101	H	0.513375	-0.172280	-0.388147
H102	H	0.592768	-0.262529	-0.332980
H103	H	0.607015	-0.086863	-0.332882
H104	H	0.463867	-0.258967	-0.233115
H105	H	0.478211	-0.083305	-0.233116
O106	O	1.134541	0.228958	-0.000087
C107	C	1.264591	0.214575	-0.079050
C108	C	1.180095	0.270110	-0.078997
H109	H	1.301452	0.247846	-0.142832
H110	H	1.253489	0.107123	-0.079101
H111	H	1.301410	0.247714	-0.015209
H112	H	1.143232	0.237068	-0.142827
H113	H	1.191256	0.377556	-0.078899
O114	O	0.872510	-0.339715	0.594644
C115	C	0.728377	-0.413273	0.623983
C116	C	0.790065	-0.319413	0.571192
H117	H	0.661707	-0.396909	0.605027
H118	H	0.737937	-0.398614	0.700836
H119	H	0.739827	-0.513854	0.605120
H120	H	0.778653	-0.218795	0.589978
H121	H	0.780490	-0.334182	0.494352
O122	O	1.199072	0.360446	0.105533
C123	C	1.125894	0.244287	0.228006
C124	C	1.133583	0.364988	0.169183
H125	H	1.072937	0.247907	0.279469
H126	H	1.186925	0.237174	0.266281
H127	H	1.112093	0.158370	0.181762
H128	H	1.147355	0.450973	0.215361
H129	H	1.072544	0.371990	0.130900
H130	H	1.348072	0.722746	0.000093
H131	H	1.225538	0.775819	-0.096885
H132	H	1.090379	0.629791	-0.096910
O133	O	1.093627	-0.003435	0.594774
C134	C	1.207052	0.023238	0.703088
C135	C	1.145390	-0.070618	0.650260
H136	H	1.248930	-0.031043	0.747947
H137	H	1.170848	0.085980	0.748087
H138	H	1.247068	0.084272	0.652281
H139	H	1.105359	-0.131735	0.701001
H140	H	1.181645	-0.133273	0.605248
H141	H	0.618136	-0.065852	0.000052
H142	H	0.875866	0.027070	0.096972
