data_functionalizedCrystal
_audit_creation_method	'MofGen! by Chris Wilmer'
_symmetry_space_group_name_H-M	'P1'
_symmetry_Int_Tables_number	1
_symmetry_cell_setting	triclinic
loop_
_symmetry_equiv_pos_as_xyz
  x,y,z
_cell_length_a	17.077404
_cell_length_b	16.959453
_cell_length_c	17.077396
_cell_angle_alpha	89.970102
_cell_angle_beta	89.983895
_cell_angle_gamma	90.017958
loop_
_atom_site_label
_atom_site_type_symbol
_atom_site_fract_x
_atom_site_fract_y
_atom_site_fract_z
Zn1	Zn	1.200053	-0.314718	-0.443816
Zn2	Zn	1.700053	0.185282	0.056184
Zn3	Zn	1.199972	-0.446908	-0.312548
Zn4	Zn	1.699972	0.053092	0.187452
Zn5	Zn	1.068790	-0.314742	-0.312566
Zn6	Zn	1.568790	0.185258	0.187434
Zn7	Zn	1.068759	-0.446854	-0.443775
Zn8	Zn	1.568759	0.053146	0.056225
O9	O	1.134394	-0.380805	-0.378176
O10	O	1.634394	0.119195	0.121824
O11	O	1.309889	-0.332265	-0.426413
O12	O	1.809889	0.167735	0.073587
O13	O	1.182549	-0.429408	-0.202704
O14	O	1.682549	0.070592	0.297296
O15	O	1.086249	-0.204128	-0.330001
O16	O	1.586249	0.295872	0.169999
O17	O	1.309829	-0.429385	-0.329971
O18	O	1.809829	0.070615	0.170029
O19	O	1.182687	-0.204110	-0.426430
O20	O	1.682687	0.295890	0.073570
O21	O	1.086170	-0.332307	-0.202717
O22	O	1.586170	0.167693	0.297283
O23	O	0.958939	-0.332255	-0.329962
O24	O	1.458939	0.167745	0.170038
O25	O	1.086197	-0.429293	-0.553627
O26	O	1.586197	0.070707	-0.053627
O27	O	0.958917	-0.429316	-0.426360
O28	O	1.458917	0.070684	0.073640
O29	O	1.182658	-0.332213	-0.553657
O30	O	1.682658	0.167787	-0.053657
O31	O	1.182519	-0.557511	-0.329931
O32	O	1.682519	-0.057511	0.170069
O33	O	1.086118	-0.557472	-0.426342
O34	O	1.586118	-0.057472	0.073658
C35	C	0.930446	-0.380783	-0.378159
C36	C	1.430446	0.119217	0.121841
C37	C	0.843196	-0.380792	-0.378170
C38	C	1.343196	0.119208	0.121830
C39	C	0.802237	-0.330312	-0.428463
C40	C	1.302237	0.169688	0.071537
C41	C	0.720257	-0.330317	-0.428467
C42	C	1.220257	0.169683	0.071533
C43	C	0.679236	-0.380807	-0.378180
C44	C	1.179236	0.119193	0.121820
C45	C	0.720201	-0.431289	-0.327881
C46	C	1.220201	0.068711	0.172119
C47	C	0.802180	-0.431280	-0.327874
C48	C	1.302180	0.068720	0.172126
C49	C	0.549331	-0.431307	-0.327900
C50	C	1.049331	0.068693	0.172100
C51	C	0.467346	-0.431318	-0.327908
C52	C	0.967346	0.068682	0.172092
C53	C	0.467408	-0.330345	-0.428494
C54	C	0.967408	0.169655	0.071506
C55	C	0.549387	-0.330335	-0.428487
C56	C	1.049387	0.169665	0.071513
C57	C	0.590345	-0.380819	-0.378188
C58	C	1.090345	0.119181	0.121812
C59	C	1.134328	-0.586172	-0.378147
C60	C	1.634328	-0.086172	0.121853
C61	C	1.134372	-0.674028	-0.378161
C62	C	1.634372	-0.174028	0.121839
C63	C	1.184673	-1.045436	-0.428481
C64	C	1.684673	-0.545436	0.071519
C65	C	1.084333	-1.045572	-0.327988
C66	C	1.584333	-0.545572	0.172012
C67	C	1.084304	-0.963026	-0.327970
C68	C	1.584304	-0.463026	0.172030
C69	C	1.134459	-0.921681	-0.378209
C70	C	1.634459	-0.421681	0.121791
C71	C	1.184644	-0.962882	-0.428466
C72	C	1.684644	-0.462882	0.071534
C73	C	1.034115	-0.921818	-0.277719
C74	C	1.534115	-0.421818	0.222281
C75	C	1.034083	-0.839267	-0.277699
C76	C	1.534083	-0.339267	0.222301
C77	C	1.084243	-0.797921	-0.327935
C78	C	1.584243	-0.297921	0.172065
C79	C	1.134430	-0.839128	-0.378194
C80	C	1.634430	-0.339128	0.121806
C81	C	1.184586	-0.797783	-0.428434
C82	C	1.684586	-0.297783	0.071566
C83	C	1.234778	-0.838988	-0.478689
C84	C	1.734778	-0.338988	0.021311
C85	C	1.234804	-0.921536	-0.478702
C86	C	1.734804	-0.421536	0.021298
C87	C	1.084216	-0.715373	-0.327922
C88	C	1.584216	-0.215373	0.172078
C89	C	1.184556	-0.715229	-0.428419
C90	C	1.684556	-0.215229	0.071581
C91	C	1.339138	-0.380828	-0.378194
C92	C	1.839138	0.119172	0.121806
C93	C	1.426388	-0.380838	-0.378202
C94	C	1.926388	0.119162	0.121798
C95	C	1.134433	-0.380744	-0.582921
C96	C	1.634433	0.119256	-0.082921
C97	C	1.134450	-0.380718	-0.670170
C98	C	1.634450	0.119282	-0.170170
C99	C	1.134481	-0.174637	-0.378222
C100	C	1.634481	0.325363	0.121778
C101	C	1.134518	-0.086781	-0.378242
C102	C	1.634518	0.413219	0.121758
C103	C	1.084281	-0.330151	-0.711167
C104	C	1.584281	0.169849	-0.211167
C105	C	1.084293	-0.330133	-0.793147
C106	C	1.584293	0.169867	-0.293147
C107	C	1.134480	-0.380679	-0.834130
C108	C	1.634480	0.119321	-0.334130
C109	C	1.184651	-0.431251	-0.793128
C110	C	1.684651	0.068749	-0.293128
C111	C	1.184634	-0.431272	-0.711149
C112	C	1.684634	0.068728	-0.211149
C113	C	1.184685	-0.431202	-0.963998
C114	C	1.684685	0.068798	-0.463998
C115	C	1.184704	-0.431179	-1.045983
C116	C	1.684704	0.068821	-0.545983
C117	C	1.084345	-0.330063	-1.045996
C118	C	1.584345	0.169937	-0.545996
C119	C	1.084327	-0.330084	-0.964017
C120	C	1.584327	0.169916	-0.464017
C121	C	1.134500	-0.380655	-0.923021
C122	C	1.634500	0.119345	-0.423021
C123	C	1.134399	-0.380809	-0.174228
C124	C	1.634399	0.119191	0.325772
C125	C	1.134535	-0.380613	-0.086979
C126	C	1.634535	0.119387	0.413021
H127	H	0.582676	-0.472414	-0.286940
H128	H	1.082676	0.027586	0.213060
O129	O	1.238806	-1.089876	-0.482681
O130	O	1.738806	-0.589876	0.017319
H131	H	1.273679	-1.047255	-0.517608
H132	H	1.773679	-0.547255	-0.017608
H133	H	1.043495	-1.079239	-0.287088
H134	H	1.543495	-0.579239	0.212912
H135	H	1.043465	-0.288922	-0.930652
H136	H	1.543465	0.211078	-0.430652
O137	O	1.288879	-0.794390	-0.532868
O138	O	1.788879	-0.294390	-0.032868
H139	H	1.275390	-0.810191	-0.594469
H140	H	1.775390	-0.310191	-0.094469
O141	O	0.675956	-0.485743	-0.273640
O142	O	1.175956	0.014257	0.226360
H143	H	0.718213	-0.520837	-0.238660
H144	H	1.218213	-0.020837	0.261340
O145	O	0.423104	-0.485768	-0.273662
O146	O	0.923104	0.014232	0.226338
H147	H	0.385743	-0.450333	-0.233803
H148	H	0.885743	0.049667	0.266197
H149	H	1.275667	-0.955093	-0.519618
H150	H	1.775667	-0.455093	-0.019618
O151	O	1.238808	-0.485740	-0.919780
O152	O	1.738808	0.014260	-0.419780
H153	H	1.225332	-0.547772	-0.935500
H154	H	1.725332	-0.047772	-0.435500
O155	O	0.979953	-0.794832	-0.223493
O156	O	1.479953	-0.294832	0.276507
H157	H	0.988354	-0.730485	-0.231923
H158	H	1.488354	-0.230485	0.268077
H159	H	0.434056	-0.289238	-0.469447
H160	H	0.934056	0.210762	0.030553
H161	H	0.835527	-0.472385	-0.286919
H162	H	1.335527	0.027615	0.213081
H163	H	0.582784	-0.289227	-0.469439
H164	H	1.082784	0.210773	0.030561
H165	H	1.225402	-0.681572	-0.469327
H166	H	1.725402	-0.181572	0.030673
H167	H	1.043438	-0.288960	-0.826523
H168	H	1.543438	0.211040	-0.326523
H169	H	0.993279	-0.955487	-0.236819
H170	H	1.493279	-0.455487	0.263181
H171	H	1.225510	-0.472410	-0.826502
H172	H	1.725510	0.027590	-0.326502
O173	O	1.030092	-0.670931	-0.273720
O174	O	1.530092	-0.170931	0.226280
H175	H	0.968482	-0.686809	-0.287127
H176	H	1.468482	-0.186809	0.212873
H177	H	1.043417	-0.288987	-0.677805
H178	H	1.543417	0.211013	-0.177805
H179	H	1.043493	-0.288885	-1.079380
H180	H	1.543493	0.211115	-0.579380
H181	H	1.225493	-0.472443	-0.677771
H182	H	1.725493	0.027557	-0.177771
O183	O	0.846481	-0.275850	-0.482697
O184	O	1.346481	0.224150	0.017303
H185	H	0.804223	-0.240743	-0.517662
H186	H	1.304223	0.259257	-0.017662
O187	O	0.676077	-0.275871	-0.482711
O188	O	1.176077	0.224129	0.017289
H189	H	0.718374	-0.240767	-0.517684
H190	H	1.218374	0.259233	-0.017684
H191	H	1.225570	-0.472338	-1.079348
H192	H	1.725570	0.027662	-0.579348
