data_functionalizedCrystal
_audit_creation_method	'MofGen! by Chris Wilmer'
_symmetry_space_group_name_H-M	'P1'
_symmetry_Int_Tables_number	1
_symmetry_cell_setting	triclinic
loop_
_symmetry_equiv_pos_as_xyz
  x,y,z
_cell_length_a	13.897449
_cell_length_b	13.897448
_cell_length_c	12.759393
_cell_angle_alpha	89.966654
_cell_angle_beta	89.976808
_cell_angle_gamma	90.018519
loop_
_atom_site_label
_atom_site_type_symbol
_atom_site_fract_x
_atom_site_fract_y
_atom_site_fract_z
Zn1	Zn	1.474701	-0.383937	-0.594100
Zn2	Zn	1.474595	-0.545266	-0.418415
Zn3	Zn	1.313390	-0.383989	-0.418425
Zn4	Zn	1.313372	-0.545194	-0.594042
O5	O	1.394015	-0.464596	-0.506245
O6	O	1.609668	-0.405346	-0.570815
O7	O	1.453175	-0.523925	-0.271395
O8	O	1.334841	-0.249000	-0.441757
O9	O	1.609591	-0.523874	-0.441740
O10	O	1.453355	-0.248962	-0.570825
O11	O	1.334738	-0.405435	-0.271402
O12	O	1.178406	-0.405365	-0.441701
O13	O	1.334808	-0.523750	-0.741071
O14	O	1.178392	-0.523801	-0.570726
O15	O	1.453336	-0.405276	-0.741113
O16	O	1.453157	-0.680238	-0.441683
O17	O	1.334706	-0.680185	-0.570716
C18	C	1.143400	-0.464582	-0.506209
C19	C	1.036186	-0.464598	-0.506218
C20	C	0.949116	-0.464602	-0.506235
C21	C	0.839884	-0.464608	-0.506267
C22	C	1.393944	-0.715211	-0.506215
C23	C	1.394002	-0.822425	-0.506237
C24	C	1.394104	-1.018720	-0.506303
C25	C	1.394044	-0.909487	-0.506269
C26	C	1.645607	-0.464612	-0.506283
C27	C	1.752821	-0.464619	-0.506299
C28	C	1.394082	-0.464499	-0.780279
C29	C	1.394111	-0.464458	-0.897056
C30	C	1.394111	-0.213003	-0.506299
C31	C	1.394153	-0.105789	-0.506322
C32	C	1.455837	-0.402762	-0.951942
C33	C	1.455860	-0.402727	-1.061666
C34	C	1.332428	-0.526092	-1.061608
C35	C	1.332401	-0.526121	-0.951886
C36	C	1.527102	-0.331541	-0.951976
C37	C	1.527125	-0.331506	-1.061700
C38	C	1.394003	-0.464624	-0.233278
C39	C	1.394161	-0.464393	-0.116502
H40	H	1.282184	-0.576294	-1.106264
O41	O	1.272395	-0.586128	-0.898732
C42	C	1.217916	-0.640523	-0.970658
H43	H	1.257449	-0.643862	-1.048873
H44	H	1.207563	-0.716525	-0.938925
H45	H	1.144686	-0.605170	-0.982337
O46	O	1.503088	-0.242457	-0.916519
C47	C	1.410715	-0.217819	-0.953452
H48	H	1.369028	-0.286165	-0.972923
H49	H	1.370645	-0.175762	-0.890389
H50	H	1.417776	-0.171609	-1.026909
O51	O	1.611735	-0.363614	-0.911493
C52	C	1.628625	-0.458582	-0.945667
H53	H	1.586826	-0.472327	-1.021046
H54	H	1.708795	-0.468892	-0.960898
H55	H	1.603914	-0.511320	-0.882692
O56	O	1.495092	-0.246909	-1.102372
C57	C	1.413009	-0.264079	-1.164524
H58	H	1.377506	-0.334201	-1.138857
H59	H	1.359958	-0.202194	-1.154640
H60	H	1.435186	-0.269726	-1.250332
O61	O	1.616170	-0.355483	-1.097375
C62	C	1.609948	-0.439616	-1.158701
H63	H	1.533528	-0.447739	-1.189910
H64	H	1.662348	-0.434323	-1.227228
H65	H	1.628937	-0.504818	-1.108557
