data_functionalizedCrystal
_audit_creation_method	'MofGen! by Chris Wilmer'
_symmetry_space_group_name_H-M	'P1'
_symmetry_Int_Tables_number	1
_symmetry_cell_setting	triclinic
loop_
_symmetry_equiv_pos_as_xyz
  x,y,z
_cell_length_a	19.805407
_cell_length_b	12.759394
_cell_length_c	19.805399
_cell_angle_alpha	90.023967
_cell_angle_beta	90.019573
_cell_angle_gamma	90.014837
loop_
_atom_site_label
_atom_site_type_symbol
_atom_site_fract_x
_atom_site_fract_y
_atom_site_fract_z
Zn1	Zn	1.034790	-0.418291	0.382737
Zn2	Zn	1.034728	-0.593984	0.269556
Zn3	Zn	0.921605	-0.418320	0.269561
Zn4	Zn	0.921591	-0.593928	0.382702
O5	O	0.978178	-0.506131	0.326139
O6	O	1.129498	-0.441608	0.367735
O7	O	1.019701	-0.570717	0.174840
O8	O	0.936651	-0.271295	0.284591
O9	O	1.129453	-0.570689	0.284581
O10	O	1.019808	-0.271274	0.367740
O11	O	0.936590	-0.441658	0.174844
O12	O	0.826886	-0.441603	0.284558
O13	O	0.936628	-0.570594	0.477423
O14	O	0.826876	-0.570622	0.367682
O15	O	1.019794	-0.441554	0.477449
O16	O	1.019688	-0.740998	0.284548
O17	O	0.936567	-0.740957	0.367676
C18	C	0.802322	-0.506111	0.326117
C19	C	0.727090	-0.506127	0.326124
C20	C	0.691759	-0.573409	0.369336
C21	C	0.621070	-0.573411	0.369346
C22	C	0.585715	-0.506136	0.326139
C23	C	0.621051	-0.438847	0.282924
C24	C	0.691739	-0.438841	0.282919
C25	C	0.335978	-0.438870	0.282947
C26	C	0.265286	-0.438884	0.282954
C27	C	0.265310	-0.573440	0.369374
C28	C	0.335997	-0.573434	0.369368
C29	C	0.371327	-0.506142	0.326157
C30	C	0.447976	-0.506139	0.326148
C31	C	0.509068	-0.506143	0.326144
C32	C	0.978138	-0.779098	0.326123
C33	C	0.978182	-0.895875	0.326138
C34	C	1.064801	-0.895864	0.239641
C35	C	1.108128	-0.950720	0.196401
C36	C	1.108168	-1.060441	0.196419
C37	C	1.064877	-1.115310	0.239684
C38	C	1.021550	-1.060455	0.282925
C39	C	1.021514	-0.950730	0.282900
C40	C	0.934936	-1.060465	0.369424
C41	C	0.934892	-0.950744	0.369403
C42	C	0.891645	-1.115334	0.412689
C43	C	0.848314	-1.060478	0.455927
C44	C	0.848275	-0.950750	0.455906
C45	C	0.891565	-0.895888	0.412644
C46	C	1.154721	-0.506152	0.326161
C47	C	1.229953	-0.506161	0.326171
C48	C	0.978216	-0.506065	0.502682
C49	C	0.978233	-0.506036	0.577914
C50	C	0.978238	-0.232097	0.326170
C51	C	0.978263	-0.115321	0.326183
C52	C	0.978180	-0.506121	0.150283
C53	C	0.978295	-0.505853	0.075051
C54	C	1.021539	-0.438842	0.613272
C55	C	1.021545	-0.438811	0.683961
C56	C	0.978249	-0.505982	0.719289
C57	C	0.934939	-0.573179	0.683926
C58	C	0.934929	-0.573203	0.613239
C59	C	0.934977	-0.573081	0.969000
C60	C	0.934992	-0.573054	1.039692
C61	C	1.021594	-0.438689	1.039721
C62	C	1.021584	-0.438713	0.969034
C63	C	0.978271	-0.505907	0.933677
C64	C	0.978263	-0.505937	0.857028
C65	C	0.978260	-0.505957	0.795937
H66	H	0.720505	-0.384048	0.247734
C67	C	1.155053	-0.890959	0.149454
C68	C	1.145735	-0.783128	0.158676
C69	C	1.188945	-0.728048	0.115435
H70	H	1.200560	-0.908746	0.159357
H71	H	1.145168	-0.908943	0.103957
H72	H	1.155625	-0.765150	0.204162
H73	H	1.100238	-0.765309	0.148768
H74	H	1.179060	-0.746033	0.069939
H75	H	1.234449	-0.745843	0.125342
H76	H	1.182624	-0.654879	0.121682
H77	H	0.891533	-0.806547	0.412618
H78	H	0.364780	-0.628219	0.404550
C79	C	0.226828	-0.646380	0.416272
C80	C	0.157355	-0.631969	0.407048
C81	C	0.121887	-0.699133	0.450241
H82	H	0.238317	-0.716991	0.406327
H83	H	0.238397	-0.631087	0.461780
H84	H	0.145790	-0.647269	0.361550
H85	H	0.145846	-0.561372	0.416997
H86	H	0.133457	-0.683840	0.495749
H87	H	0.133382	-0.769740	0.440293
H88	H	0.074747	-0.689358	0.443993
C89	C	0.227020	-0.365717	0.236019
C90	C	0.273090	-0.306762	0.198188
C91	C	0.237864	-0.239345	0.154953
H92	H	0.199426	-0.405730	0.206424
H93	H	0.199475	-0.319947	0.261954
H94	H	0.300623	-0.352526	0.172255
H95	H	0.300686	-0.266727	0.227765
H96	H	0.210319	-0.193575	0.180888
H97	H	0.210271	-0.279367	0.125362
H98	H	0.269117	-0.199329	0.129284
H99	H	0.592259	-0.384066	0.247747
C100	C	0.888092	-0.646115	1.078084
C101	C	0.926409	-0.713467	1.118648
C102	C	0.883233	-0.780793	1.154017
H103	H	0.858604	-0.606033	1.105717
H104	H	0.862307	-0.686196	1.046923
H105	H	0.952183	-0.673390	1.149805
H106	H	0.955896	-0.753572	1.091032
H107	H	0.857448	-0.820874	1.122856
H108	H	0.853747	-0.740703	1.181646
H109	H	0.909225	-0.826506	1.181539
C110	C	0.891614	-1.234460	0.412838
C111	C	0.844444	-1.270767	0.459994
C112	C	0.844402	-1.380501	0.460158
H113	H	0.879915	-1.259481	0.369196
H114	H	0.935285	-1.259250	0.424617
H115	H	0.800783	-1.245989	0.448211
H116	H	0.856133	-1.245776	0.503642
H117	H	0.888073	-1.405290	0.471937
H118	H	0.832704	-1.405511	0.416514
H119	H	0.812403	-1.405149	0.492157
H120	H	0.364736	-0.384085	0.247756
C121	C	0.887917	-0.646131	0.930740
C122	C	0.850013	-0.704961	0.976811
C123	C	0.806654	-0.772270	0.941588
H124	H	0.858374	-0.606046	0.903170
H125	H	0.913766	-0.691986	0.903170
H126	H	0.824167	-0.659112	1.004369
H127	H	0.879540	-0.745067	1.004383
H128	H	0.832502	-0.818124	0.914019
H129	H	0.777115	-0.732176	0.914020
H130	H	0.780935	-0.812200	0.972842
H131	H	1.064765	-0.806523	0.239613
H132	H	1.056811	-0.384097	0.712746
C133	C	0.801347	-0.891139	0.502939
C134	C	0.839629	-0.828070	0.546352
C135	C	0.796423	-0.773156	0.589694
H136	H	0.771838	-0.848317	0.477095
H137	H	0.775585	-0.939499	0.528747
H138	H	0.865379	-0.779715	0.520547
H139	H	0.869137	-0.870866	0.572210
H140	H	0.770661	-0.821516	0.615502
H141	H	0.766916	-0.730340	0.563844
H142	H	0.822391	-0.730365	0.619158
C143	C	0.730264	-0.646411	0.416175
C144	C	0.799731	-0.632029	0.406911
C145	C	0.835221	-0.699269	0.450044
H146	H	0.718781	-0.631194	0.461698
H147	H	0.718704	-0.717006	0.406186
H148	H	0.811286	-0.561450	0.416905
H149	H	0.811234	-0.647254	0.361398
H150	H	0.823661	-0.769864	0.440055
H151	H	0.823733	-0.684046	0.495563
H152	H	0.882358	-0.689527	0.443760
H153	H	1.143452	-1.105105	0.161213
H154	H	1.064919	-1.204651	0.239701
C155	C	0.801403	-1.119994	0.503010
C156	C	0.816107	-1.093228	0.569986
C157	C	0.772912	-1.148048	0.613378
H158	H	0.755898	-1.102135	0.493152
H159	H	0.807642	-1.193206	0.496876
H160	H	0.809862	-1.020032	0.576116
H161	H	0.861603	-1.111090	0.579865
H162	H	0.779151	-1.221259	0.607245
H163	H	0.727410	-1.130184	0.603514
H164	H	0.782887	-1.129902	0.658826
H165	H	1.056842	-0.384020	0.940273
H166	H	1.056797	-0.384147	0.584513
C167	C	0.888043	-0.646237	0.722317
C168	C	0.926359	-0.713586	0.762884
C169	C	0.883182	-0.780913	0.798251
H170	H	0.858552	-0.606156	0.749948
H171	H	0.862260	-0.686320	0.691155
H172	H	0.952130	-0.673508	0.794042
H173	H	0.955848	-0.753691	0.735270
H174	H	0.857400	-0.820997	0.767089
H175	H	0.853694	-0.740824	0.825878
H176	H	0.909174	-0.826624	0.825774
H177	H	1.056859	-0.383973	1.068518
H178	H	0.592306	-0.628199	0.404534
H179	H	0.899658	-0.627910	0.584451
