data_functionalizedCrystal
_audit_creation_method	'MofGen! by Chris Wilmer'
_symmetry_space_group_name_H-M	'P1'
_symmetry_Int_Tables_number	1
_symmetry_cell_setting	triclinic
loop_
_symmetry_equiv_pos_as_xyz
  x,y,z
_cell_length_a	16.109301
_cell_length_b	18.266242
_cell_length_c	16.109304
_cell_angle_alpha	90.003536
_cell_angle_beta	83.462059
_cell_angle_gamma	90.006317
loop_
_atom_site_label
_atom_site_type_symbol
_atom_site_fract_x
_atom_site_fract_y
_atom_site_fract_z
O1	O	1.103138	0.060830	0.106868
O2	O	1.603138	0.560830	0.606868
O3	O	0.861076	0.060841	0.120168
O4	O	1.361076	0.560841	0.620168
O5	O	0.988756	0.060836	-0.007513
O6	O	1.488756	0.560836	0.492487
O7	O	0.975459	0.060835	0.234549
O8	O	1.475459	0.560835	0.734549
O9	O	0.988734	-0.060926	-0.007519
O10	O	1.488734	0.439074	0.492481
O11	O	0.861055	-0.060921	0.120161
O12	O	1.361055	0.439079	0.620161
O13	O	1.103117	-0.060932	0.106862
O14	O	1.603117	0.439068	0.606862
Zn15	Zn	0.982082	-0.080259	0.113510
Zn16	Zn	1.482082	0.419741	0.613510
Zn17	Zn	0.982111	0.080168	0.113519
Zn18	Zn	1.482111	0.580168	0.613519
O19	O	0.975437	-0.060927	0.234542
O20	O	1.475437	0.439073	0.734542
C21	C	0.830091	-0.000038	0.119626
C22	C	1.330091	0.499962	0.619626
C23	C	0.737795	-0.000034	0.118010
C24	C	1.237795	0.499966	0.618010
N25	N	0.982069	-0.189746	0.113504
N26	N	1.482069	0.310254	0.613504
C27	C	0.515524	-0.000043	0.190018
C28	C	1.015524	0.499957	0.690018
C29	C	0.428803	-0.000047	0.188494
C30	C	0.928803	0.499953	0.688494
C31	C	0.448676	-0.000044	0.037005
C32	C	0.948676	0.499956	0.537005
C33	C	0.535395	-0.000045	0.038530
C34	C	1.035395	0.499955	0.538530
C35	C	0.568816	-0.000040	0.115039
C36	C	1.068816	0.499960	0.615039
C37	C	0.395377	-0.000044	0.111990
C38	C	0.895377	0.499956	0.611990
C39	C	0.301351	-0.000049	0.110337
C40	C	0.801351	0.499951	0.610337
C41	C	0.662848	-0.000036	0.116693
C42	C	1.162848	0.499964	0.616693
C43	C	1.038624	-0.228057	0.056995
C44	C	1.538624	0.271943	0.556995
C45	C	1.038629	-0.304702	0.056991
C46	C	1.538629	0.195298	0.556991
C47	C	0.982087	-0.343033	0.113510
C48	C	1.482087	0.156967	0.613510
C49	C	0.925522	-0.304712	0.170024
C50	C	1.425522	0.195288	0.670024
C51	C	0.925513	-0.228069	0.170021
C52	C	1.425513	0.271931	0.670021
N53	N	0.971486	-0.463365	0.187080
N54	N	1.471486	0.036635	0.687080
N55	N	0.971500	-0.536173	0.187080
N56	N	1.471500	-0.036173	0.687080
C57	C	0.982111	-0.573955	0.113523
C58	C	1.482111	-0.073955	0.613523
N59	N	0.992724	-0.536179	0.039962
N60	N	1.492724	-0.036179	0.539962
N61	N	0.992714	-0.463364	0.039962
N62	N	1.492714	0.036636	0.539962
C63	C	0.982091	-0.426140	0.113520
C64	C	1.482091	0.073860	0.613520
C65	C	1.038675	-0.695373	0.057005
C66	C	1.538675	-0.195373	0.557005
C67	C	1.038674	-0.772020	0.057000
C68	C	1.538674	-0.272020	0.557000
C69	C	0.925571	-0.772028	0.170040
C70	C	1.425571	-0.272028	0.670040
C71	C	0.925567	-0.695384	0.170038
C72	C	1.425567	-0.195384	0.670038
C73	C	0.982124	-0.657061	0.113521
C74	C	1.482124	-0.157061	0.613521
C75	C	1.134102	-0.000051	0.107404
C76	C	1.634102	0.499949	0.607404
C77	C	1.226398	-0.000050	0.109019
C78	C	1.726398	0.499950	0.609019
C79	C	0.988206	-0.000044	-0.038491
C80	C	1.488206	0.499956	0.461509
C81	C	0.986590	-0.000039	-0.130786
C82	C	1.486590	0.499961	0.369214
N83	N	0.982131	0.189655	0.113519
N84	N	1.482131	0.689655	0.613519
C85	C	0.982868	0.066331	-0.343120
C86	C	1.482868	0.566331	0.156880
C87	C	0.981342	0.066331	-0.429840
C88	C	1.481342	0.566331	0.070160
C89	C	0.981323	-0.066421	-0.429844
C90	C	1.481323	0.433579	0.070156
C91	C	0.982843	-0.066420	-0.343125
C92	C	1.482843	0.433580	0.156875
C93	C	0.983620	-0.000041	-0.299766
C94	C	1.483620	0.499959	0.200234
C95	C	0.980573	-0.000043	-0.473205
C96	C	1.480573	0.499957	0.026795
C97	C	0.978919	-0.000044	-0.567231
C98	C	1.478919	0.499956	-0.067231
C99	C	0.985273	-0.000040	-0.205734
C100	C	1.485273	0.499960	0.294266
C101	C	0.975987	-0.000046	0.265520
C102	C	1.475987	0.499954	0.765520
C103	C	0.977603	-0.000046	0.357816
C104	C	1.477603	0.499954	0.857816
H105	H	0.542732	-0.000044	0.252316
H106	H	1.042732	0.499956	0.752316
F107	F	0.592116	-0.000047	-0.041277
F108	F	1.092116	0.499953	0.458723
H109	H	1.084673	-0.196857	0.010974
H110	H	1.584673	0.303143	0.510974
F111	F	0.983692	0.136977	-0.296976
F112	F	1.483692	0.636977	0.203024
H113	H	0.879458	-0.196875	0.216038
H114	H	1.379458	0.303125	0.716038
F115	F	0.372089	-0.000051	0.268297
F116	F	0.872089	0.499949	0.768297
H117	H	1.084724	-0.664170	0.010983
H118	H	1.584724	-0.164170	0.510983
F119	F	0.413099	-0.000046	-0.044416
F120	F	0.913099	0.499954	0.455584
F121	F	1.098826	-0.345482	-0.003157
F122	F	1.598826	0.154518	0.496843
H123	H	0.879483	-0.335925	0.216042
H124	H	1.379483	0.164075	0.716042
F125	F	1.098866	-0.812795	-0.003152
F126	F	1.598866	-0.312795	0.496848
H127	H	0.879530	-0.803237	0.216056
H128	H	1.379530	-0.303237	0.716056
F129	F	0.865377	-0.654607	0.230186
F130	F	1.365377	-0.154607	0.730186
H131	H	0.980728	0.120378	-0.465135
H132	H	1.480728	0.620378	0.034865
H133	H	0.980692	-0.120464	-0.465158
H134	H	1.480692	0.379536	0.034842
F135	F	0.983635	-0.137066	-0.296980
F136	F	1.483635	0.362934	0.203020
