data_functionalizedCrystal
_audit_creation_method	'MofGen! by Chris Wilmer'
_symmetry_space_group_name_H-M	'P1'
_symmetry_Int_Tables_number	1
_symmetry_cell_setting	triclinic
loop_
_symmetry_equiv_pos_as_xyz
  x,y,z
_cell_length_a	10.654550
_cell_length_b	13.101039
_cell_length_c	10.654550
_cell_angle_alpha	86.605036
_cell_angle_beta	84.484931
_cell_angle_gamma	93.387017
loop_
_atom_site_label
_atom_site_type_symbol
_atom_site_fract_x
_atom_site_fract_y
_atom_site_fract_z
O1	O	1.674684	0.085138	0.169534
O2	O	2.174684	0.585138	0.669534
O3	O	1.309207	0.085156	0.186338
O4	O	1.809207	0.585156	0.686338
O5	O	1.500348	0.085140	-0.004803
O6	O	2.000348	0.585140	0.495197
O7	O	1.483543	0.085154	0.360675
O8	O	1.983543	0.585154	0.860675
O9	O	1.486634	-0.085289	0.008934
O10	O	1.986634	0.414711	0.508934
O11	O	1.295493	-0.085272	0.200075
O12	O	1.795493	0.414728	0.700075
O13	O	1.660970	-0.085291	0.183271
O14	O	2.160970	0.414709	0.683271
Zn15	Zn	1.476054	-0.112341	0.193854
Zn16	Zn	1.976054	0.387659	0.693854
Zn17	Zn	1.494123	0.112206	0.175755
Zn18	Zn	1.994123	0.612206	0.675755
O19	O	1.469829	-0.085275	0.374412
O20	O	1.969829	0.414725	0.874412
C21	C	1.255552	-0.000056	0.191973
C22	C	1.755552	0.499944	0.691973
C23	C	1.116109	-0.000049	0.188280
C24	C	1.616109	0.499951	0.688280
N25	N	1.463732	-0.265588	0.206205
N26	N	1.963732	0.234412	0.706205
C27	C	1.036624	-0.000047	0.300821
C28	C	1.536624	0.499953	0.800821
C29	C	0.905601	-0.000065	0.297346
C30	C	1.405601	0.499935	0.797346
C31	C	0.933563	-0.000082	0.068778
C32	C	1.433563	0.499918	0.568778
C33	C	1.064582	-0.000071	0.072255
C34	C	1.564582	0.499929	0.572255
C35	C	1.446967	-0.474630	0.223022
C36	C	1.946967	0.025370	0.723022
C37	C	1.523215	-0.525512	0.146581
C38	C	2.023215	-0.025512	0.646581
C39	C	1.513887	-0.641829	0.155938
C40	C	2.013887	-0.141829	0.655938
C41	C	1.456293	-0.358301	0.213667
C42	C	1.956293	0.141699	0.713667
C43	C	1.714625	-0.000077	0.177636
C44	C	2.214625	0.499923	0.677636
C45	C	1.854068	-0.000077	0.181328
C46	C	2.354068	0.499923	0.681328
C47	C	1.492257	-0.000074	-0.044732
C48	C	1.992257	0.499926	0.455268
C49	C	1.488565	-0.000072	-0.184176
C50	C	1.988565	0.499928	0.315824
N51	N	1.506455	0.265454	0.163394
N52	N	2.006455	0.765454	0.663394
C53	C	1.601106	-0.000077	-0.263661
C54	C	2.101106	0.499923	0.236339
C55	C	1.597631	-0.000065	-0.394683
C56	C	2.097631	0.499935	0.105317
C57	C	1.369063	-0.000045	-0.366721
C58	C	1.869063	0.499955	0.133279
C59	C	1.372540	-0.000051	-0.235702
C60	C	1.872540	0.499949	0.264298
C61	C	1.477920	-0.000059	0.414341
C62	C	1.977920	0.499941	0.914341
C63	C	1.481612	-0.000054	0.553784
C64	C	1.981612	0.499946	1.053784
H65	H	1.078571	-0.000037	0.395297
H66	H	1.578571	0.499963	0.895297
F67	F	0.821012	-0.000065	0.417129
F68	F	1.321012	0.499935	0.917129
H69	H	1.695581	-0.000092	-0.221713
H70	H	2.195581	0.499908	0.278287
H71	H	1.374688	-0.518421	0.295487
H72	H	1.874688	-0.018421	0.795487
H73	H	1.689273	-0.000067	-0.459395
H74	H	2.189273	0.499933	0.040605
H75	H	1.274599	-0.000030	-0.408690
H76	H	1.774599	0.499970	0.091310
H77	H	0.891593	-0.000106	-0.025685
H78	H	1.391593	0.499894	0.474315
H79	H	1.129303	-0.000075	-0.019395
H80	H	1.629303	0.499925	0.480605
F81	F	1.618076	-0.468271	0.052238
F82	F	2.118076	0.031729	0.552238
H83	H	1.280890	-0.000043	-0.170982
H84	H	1.780890	0.499957	0.329018
