data_functionalizedCrystal
_audit_creation_method	'MofGen! by Chris Wilmer'
_symmetry_space_group_name_H-M	'P1'
_symmetry_Int_Tables_number	1
_symmetry_cell_setting	triclinic
loop_
_symmetry_equiv_pos_as_xyz
  x,y,z
_cell_length_a	8.634740
_cell_length_b	10.540539
_cell_length_c	7.681481
_cell_angle_alpha	84.202085
_cell_angle_beta	96.618670
_cell_angle_gamma	92.547899
loop_
_atom_site_label
_atom_site_type_symbol
_atom_site_fract_x
_atom_site_fract_y
_atom_site_fract_z
O1	O	2.036158	0.424664	-0.146418
O2	O	1.586824	0.389914	-0.146421
O3	O	1.821743	0.223759	-0.146417
O4	O	1.801240	0.590818	-0.146422
O5	O	1.850657	0.203254	0.146441
O6	O	1.615738	0.369408	0.146437
O7	O	2.065073	0.404159	0.146440
Zn8	Zn	1.844996	0.383528	0.192936
Zn9	Zn	1.806900	0.410544	-0.192917
O10	O	1.830154	0.570313	0.146437
C11	C	1.543744	0.371789	0.000008
C12	C	1.372302	0.348317	0.000006
C13	C	1.834662	0.166027	0.000009
C14	C	1.830061	0.024552	-0.000001
C15	C	1.653726	-0.179074	-0.000659
C16	C	1.658454	-0.031966	0.000000
C17	C	1.929157	-0.039331	0.167236
C18	C	1.923314	-0.186557	0.167377
C19	C	1.893923	-0.163357	-0.165657
C20	C	1.895286	-0.016038	-0.167868
C21	C	2.108152	0.422284	0.000008
C22	C	2.279593	0.445757	-0.000002
C23	C	1.817234	0.628045	0.000007
C24	C	1.821834	0.769522	0.000005
N25	N	1.871006	0.365090	0.456271
N26	N	1.780902	0.428973	-0.456252
H27	H	1.581636	0.011568	-0.119882
F28	F	1.660678	0.514201	0.445460
H29	H	2.047480	-0.220883	0.174965
F30	F	1.347280	0.578268	0.000017
H31	H	1.574097	-0.207062	-0.120588
F32	F	1.588414	0.001805	0.156951
F33	F	1.870235	-0.003656	0.329907
H34	H	1.822645	0.026542	-0.291586
H35	H	1.963002	0.299893	0.531478
H36	H	1.597987	-0.225385	0.118597
H37	H	1.320503	0.246934	-0.000043
H38	H	1.874623	-0.230520	0.292389
H39	H	2.055794	-0.002938	0.173455
H40	H	1.825868	-0.192413	-0.292412
F41	F	2.057514	0.035333	-0.181079
H42	H	2.017763	-0.196268	-0.166781
