data_functionalizedCrystal
_audit_creation_method	'MofGen! by Chris Wilmer'
_symmetry_space_group_name_H-M	'P1'
_symmetry_Int_Tables_number	1
_symmetry_cell_setting	triclinic
loop_
_symmetry_equiv_pos_as_xyz
  x,y,z
_cell_length_a	23.532407
_cell_length_b	14.971486
_cell_length_c	13.448316
_cell_angle_alpha	89.993189
_cell_angle_beta	89.998571
_cell_angle_gamma	83.231403
loop_
_atom_site_label
_atom_site_type_symbol
_atom_site_fract_x
_atom_site_fract_y
_atom_site_fract_z
O1	O	0.755726	0.108581	-0.082568
O2	O	0.589930	0.124291	-0.082598
O3	O	0.677272	-0.013811	-0.082575
O4	O	0.668384	0.246683	-0.082591
O5	O	0.677261	-0.013820	0.082809
O6	O	0.589919	0.124283	0.082786
O7	O	0.755715	0.108572	0.082815
Cu8	Cu	0.672816	0.116427	0.097902
Cu9	Cu	0.672829	0.116437	-0.097684
O10	O	0.668373	0.246674	0.082793
C11	C	0.676869	-0.047136	0.000116
C12	C	0.675678	-0.146420	0.000115
C13	C	0.568707	0.123887	0.000091
C14	C	0.505485	0.122684	0.000080
C15	C	0.726989	-0.204188	0.000125
C16	C	0.725866	-0.297475	0.000115
C17	C	0.673432	-0.332994	0.000102
C18	C	0.622117	-0.275219	0.000089
C19	C	0.623241	-0.181933	0.000092
C20	C	0.619780	-0.469657	0.000085
C21	C	0.618657	-0.562949	0.000084
C22	C	0.722406	-0.585199	0.000108
C23	C	0.723529	-0.491913	0.000111
C24	C	0.672214	-0.434145	0.000100
C25	C	0.106699	0.196866	0.000120
C26	C	0.047294	0.195748	0.000126
O27	O	0.010844	0.264516	0.000158
N28	N	0.024317	0.113647	0.000130
C29	C	0.060747	0.032657	0.000137
O30	O	0.035748	-0.037280	0.000141
C31	C	0.120151	0.033775	0.000138
C32	C	0.143125	0.115882	0.000124
C33	C	0.129674	0.278966	0.000108
C34	C	0.189075	0.280083	0.000100
C35	C	0.225501	0.199100	0.000104
C36	C	0.202526	0.116999	0.000116
C37	C	0.156581	-0.047213	0.000152
C38	C	0.215988	-0.046088	0.000154
C39	C	0.238962	0.036019	0.000141
C40	C	0.298353	0.037133	0.000113
N41	N	0.321331	0.119235	0.000109
C42	C	0.284905	0.200218	0.000105
C43	C	-0.064005	0.030315	0.000137
C44	C	-0.123408	0.029195	0.000129
C45	C	-0.136857	0.192287	0.000120
C46	C	-0.077453	0.193405	0.000121
C47	C	-0.041028	0.112416	0.000133
C48	C	0.409652	0.202558	0.000087
C49	C	0.469059	0.203667	0.000075
C50	C	0.482502	0.040576	0.000089
C51	C	0.423101	0.039466	0.000096
C52	C	0.386676	0.120464	0.000099
O53	O	0.334838	-0.031598	0.000085
O54	O	0.309913	0.270143	0.000114
C55	C	0.776939	0.108976	0.000125
C56	C	0.840161	0.110179	0.000129
C57	C	0.668776	0.279999	0.000099
C58	C	0.669968	0.379284	0.000094
N59	N	0.672811	0.116419	0.235466
N60	N	0.672839	0.116437	-0.235248
C61	C	0.711498	0.055292	0.287516
C62	C	0.711502	0.055292	0.391620
C63	C	0.672821	0.116423	0.443671
C64	C	0.634130	0.177552	0.391613
C65	C	0.634124	0.177548	0.287512
C66	C	0.634145	0.177558	0.608593
C67	C	0.634152	0.177564	0.712702
C68	C	0.711523	0.055302	0.712701
C69	C	0.711518	0.055297	0.608600
C70	C	0.672827	0.116429	0.556549
H71	H	0.769687	-0.175277	0.000142
H72	H	0.512171	-0.025358	0.000089
C73	C	0.781209	-0.452845	0.000130
N74	N	0.824655	-0.423420	0.000141
C75	C	0.591578	0.244797	0.551340
N76	N	0.559516	0.295440	0.508217
C77	C	0.591597	0.244806	0.769956
N78	N	0.559544	0.295452	0.813079
C79	C	0.591570	0.244799	0.230257
N80	N	0.559517	0.295456	0.187134
C81	C	-0.023942	-0.058786	0.000134
N82	N	0.006232	-0.125896	0.000132
H83	H	0.743017	0.005524	0.566220
H84	H	0.577994	-0.422623	0.000074
H85	H	0.380002	0.268514	0.000093
H86	H	0.743026	0.005527	0.755086
C87	C	0.131323	-0.137539	0.000187
N88	N	0.112300	-0.205578	0.000221
H89	H	0.764188	-0.632239	0.000114
H90	H	0.575960	-0.591865	0.000090
H91	H	0.767649	-0.344507	0.000125
C92	C	-0.052187	0.283728	0.000117
N93	N	-0.033160	0.351764	0.000118
H94	H	0.581458	-0.134899	0.000084
C95	C	0.564439	-0.314292	0.000083
N96	N	0.520995	-0.343721	0.000086
C97	C	0.214339	0.370408	0.000106
N98	N	0.233363	0.438445	0.000119
C99	C	0.494326	0.293995	0.000068
N100	N	0.513356	0.362028	0.000067
H101	H	0.245644	-0.112041	0.000165
H102	H	0.404394	-0.027392	0.000093
H103	H	0.742999	0.005516	0.245143
H104	H	0.743003	0.005517	0.433998
C105	C	0.089614	0.368063	0.000107
N106	N	0.059444	0.435176	0.000100
H107	H	0.602632	0.227323	0.433999
H108	H	-0.166526	0.258228	0.000121
C109	C	-0.148672	-0.061129	0.000137
N110	N	-0.167699	-0.129164	0.000151
