data_functionalizedCrystal
_audit_creation_method	'MofGen! by Chris Wilmer'
_symmetry_space_group_name_H-M	'P1'
_symmetry_Int_Tables_number	1
_symmetry_cell_setting	triclinic
loop_
_symmetry_equiv_pos_as_xyz
  x,y,z
_cell_length_a	10.654554
_cell_length_b	10.654550
_cell_length_c	9.730223
_cell_angle_alpha	89.996251
_cell_angle_beta	89.997280
_cell_angle_gamma	84.485873
loop_
_atom_site_label
_atom_site_type_symbol
_atom_site_fract_x
_atom_site_fract_y
_atom_site_fract_z
O1	O	0.176393	1.667837	-0.114408
O2	O	0.193199	1.302359	-0.114386
O3	O	0.002057	1.493498	-0.114384
O4	O	0.367535	1.476698	-0.114410
O5	O	0.002062	1.493496	0.114196
O6	O	0.193204	1.302357	0.114194
O7	O	0.176398	1.667835	0.114172
Zn8	Zn	0.184801	1.485095	0.150475
Zn9	Zn	0.184795	1.485098	-0.150689
O10	O	0.367540	1.476696	0.114170
C11	C	-0.044738	1.492262	-0.000093
C12	C	-0.184181	1.488568	-0.000091
C13	C	0.191967	1.255560	-0.000093
C14	C	0.188275	1.116116	-0.000085
C15	C	-0.366743	1.369081	-0.000114
C16	C	-0.235722	1.372552	-0.000097
C17	C	-0.263670	1.601121	-0.000116
C18	C	-0.394689	1.597649	-0.000143
C19	C	-0.350606	1.237118	-0.000097
C20	C	-0.219585	1.240589	-0.000079
C21	C	0.300817	1.036633	-0.000113
C22	C	0.297340	0.905612	-0.000136
C23	C	0.068771	0.933571	-0.000109
C24	C	0.072249	1.064590	-0.000076
C25	C	0.432779	1.020489	-0.000135
C26	C	0.429303	0.889468	-0.000158
C27	C	0.414335	1.477932	-0.000124
C28	C	0.553778	1.481626	-0.000135
C29	C	0.177629	1.714634	-0.000124
C30	C	0.181321	1.854077	-0.000141
N31	N	0.184805	1.485102	0.356011
N32	N	0.184782	1.485101	-0.356225
C33	C	0.100196	1.569761	0.427939
C34	C	0.100181	1.569757	0.571822
C35	C	0.269394	1.400433	0.571837
C36	C	0.269403	1.400432	0.427957
C37	C	0.002506	1.667523	0.427931
C38	C	0.002491	1.667519	0.571814
H39	H	-0.221696	1.695584	-0.000147
H40	H	-0.379945	1.185505	-0.095754
H41	H	0.033094	1.758707	0.383296
H42	H	-0.019393	1.129302	-0.000033
H43	H	0.479022	0.847737	-0.095829
H44	H	-0.386258	1.195085	0.098588
C45	C	0.362475	1.307317	0.348835
H46	H	0.350364	1.319437	0.252840
H47	H	0.446419	1.321684	0.372423
H48	H	0.348049	1.223377	0.372414
H49	H	-0.088732	1.637005	0.616438
C50	C	0.031563	1.797889	0.624568
H51	H	0.043543	1.851503	0.548626
H52	H	-0.036917	1.833627	0.678798
H53	H	0.106022	1.788960	0.678810
H54	H	0.338270	1.331496	0.630431
C55	C	-0.157886	1.186712	-0.133383
H56	H	-0.221072	1.160311	-0.192756
H57	H	-0.115401	1.249894	-0.177682
H58	H	-0.099130	1.116672	-0.111943
H59	H	-0.025694	0.891602	-0.000123
C60	C	-0.482112	1.721448	-0.000177
H61	H	-0.432653	1.791040	-0.000164
H62	H	-0.533788	1.724841	-0.079897
H63	H	-0.533818	1.724849	0.079535
C64	C	-0.163197	1.173426	0.129157
H65	H	-0.228918	1.143462	0.182303
H66	H	-0.105203	1.104382	0.102603
H67	H	-0.120697	1.231019	0.182309
C68	C	-0.127880	1.638517	0.375166
H69	H	-0.127867	1.638521	0.277528
H70	H	-0.145808	1.558097	0.407713
H71	H	-0.190400	1.701052	0.407688
H72	H	0.484392	1.049820	0.095527
H73	H	0.474796	1.056146	-0.098825
H74	H	0.469186	0.843797	0.098523
