data_functionalizedCrystal
_audit_creation_method	'MofGen! by Chris Wilmer'
_symmetry_space_group_name_H-M	'P1'
_symmetry_Int_Tables_number	1
_symmetry_cell_setting	triclinic
loop_
_symmetry_equiv_pos_as_xyz
  x,y,z
_cell_length_a	10.797406
_cell_length_b	13.635800
_cell_length_c	11.347821
_cell_angle_alpha	107.428498
_cell_angle_beta	73.249962
_cell_angle_gamma	82.357922
loop_
_atom_site_label
_atom_site_type_symbol
_atom_site_fract_x
_atom_site_fract_y
_atom_site_fract_z
V1	V	0.260432	-2.035385	-0.404447
O2	O	0.078348	-2.044187	-0.398939
O3	O	0.429004	-1.996120	-0.399574
O4	O	0.296295	-2.027567	-0.581801
O5	O	0.211976	-2.012522	-0.215449
V6	V	0.233942	-2.277028	-0.382097
O7	O	0.318540	-2.166273	-0.453473
O8	O	0.175833	-2.371239	-0.333071
O9	O	0.065369	-2.204690	-0.386970
O10	O	0.416025	-2.326924	-0.387605
O11	O	0.282398	-2.358589	-0.571095
O12	O	0.198078	-2.173243	-0.204743
C13	C	0.468853	-1.914425	-0.392650
C14	C	0.606919	-1.923074	-0.389847
C15	C	0.675837	-2.013502	-0.394708
C16	C	0.818537	-2.022442	-0.391812
C17	C	1.025524	-2.121536	-0.393884
C18	C	0.887452	-2.112880	-0.396673
V19	V	0.260432	-1.535385	-0.404447
O20	O	0.078348	-1.544187	-0.398939
O21	O	0.429004	-1.496120	-0.399574
O22	O	0.296295	-1.527567	-0.581801
O23	O	0.211976	-1.512522	-0.215449
V24	V	0.233942	-1.777028	-0.382097
O25	O	0.318540	-1.666273	-0.453473
O26	O	0.175833	-1.871239	-0.333071
O27	O	0.065369	-1.704690	-0.386970
O28	O	0.416025	-1.826924	-0.387605
O29	O	0.282398	-1.858589	-0.571095
O30	O	0.198078	-1.673243	-0.204743
C31	C	0.299567	-1.454539	-0.625098
C32	C	0.330004	-1.488689	-0.770072
C33	C	0.262939	-1.527974	-0.968203
C34	C	0.231457	-1.492662	-0.818361
C35	C	0.299567	-1.954539	-0.625098
C36	C	0.330004	-1.988689	-0.770072
C37	C	0.194809	-2.077941	-0.161440
C38	C	0.164365	-2.033411	-0.016464
C39	C	0.262909	-2.034060	0.031815
C40	C	0.231446	-1.988036	0.181654
C41	C	0.468853	-1.414425	-0.392650
C42	C	0.606919	-1.423074	-0.389847
C43	C	0.025527	-1.618055	-0.393891
C44	C	-0.112537	-1.599026	-0.396702
C45	C	0.194809	-1.577941	-0.161440
C46	C	0.164365	-1.533411	-0.016464
C47	C	0.628059	-1.397690	-0.269324
C48	C	0.757781	-1.405826	-0.266673
C49	C	0.866362	-1.439340	-0.384546
C50	C	0.845217	-1.464728	-0.505079
C51	C	0.715497	-1.456599	-0.507729
C52	C	-0.221090	-1.550903	-0.278815
C53	C	-0.350821	-1.533003	-0.281437
C54	C	-0.371997	-1.563233	-0.401948
C55	C	-0.263431	-1.611358	-0.519844
C56	C	-0.133702	-1.629250	-0.517220
H57	H	0.865175	-1.951638	-0.385513
H58	H	0.437676	-1.511421	-0.839653
O59	O	-0.286340	-1.643921	-0.649791
H60	H	-0.246314	-1.730636	-0.701682
H61	H	0.840820	-2.183689	-0.402984
H62	H	0.629199	-2.084303	-0.401021
O63	O	0.405526	-2.079920	-0.060356
H64	H	0.418415	-2.164487	-0.118327
O65	O	0.088828	-1.942162	0.273832
H66	H	0.021428	-1.948679	0.215673
O67	O	0.668683	-1.829283	-0.381501
H68	H	0.771071	-1.851023	-0.380531
O69	O	0.088827	-1.462532	-0.726206
H70	H	0.086482	-1.439524	-0.622975
H71	H	-0.203873	-1.526280	-0.180677
O72	O	0.472628	-2.034558	0.137763
H73	H	0.474963	-2.063518	0.034536
H74	H	-0.045322	-1.668442	-0.613221
O75	O	0.405560	-1.558094	-1.060361
H76	H	0.407907	-1.581111	-1.163593
O77	O	1.006268	-1.448095	-0.381668
H78	H	1.078229	-1.475668	-0.483878
O79	O	0.021783	-1.501819	-0.924338
H80	H	0.019438	-1.478811	-0.821108
H81	H	0.056706	-1.998775	0.053133
O82	O	0.962340	-1.500875	-0.632204
H83	H	0.952620	-1.445326	-0.685068
H84	H	0.539662	-1.370394	-0.173333
O85	O	0.692653	-1.483978	-0.637705
H86	H	0.732699	-1.431546	-0.689561
O87	O	0.780572	-1.378423	-0.136665
H88	H	0.683269	-1.353732	-0.055153
H89	H	-0.439204	-1.493818	-0.185428
H90	H	-0.477637	-1.548653	-0.404066
