data_functionalizedCrystal
_audit_creation_method	'MofGen! by Chris Wilmer'
_symmetry_space_group_name_H-M	'P1'
_symmetry_Int_Tables_number	1
_symmetry_cell_setting	triclinic
loop_
_symmetry_equiv_pos_as_xyz
  x,y,z
_cell_length_a	16.959453
_cell_length_b	16.959455
_cell_length_c	16.959447
_cell_angle_alpha	89.985678
_cell_angle_beta	90.031571
_cell_angle_gamma	89.980327
loop_
_atom_site_label
_atom_site_type_symbol
_atom_site_fract_x
_atom_site_fract_y
_atom_site_fract_z
Zn1	Zn	-0.314730	-1.208369	0.446902
Zn2	Zn	-0.446923	-1.208286	0.314720
Zn3	Zn	-0.314755	-1.076198	0.314739
Zn4	Zn	-0.446864	-1.076156	0.446859
O5	O	-0.380818	-1.142252	0.380805
O6	O	-0.332280	-1.318969	0.429378
O7	O	-0.429426	-1.190746	0.204112
O8	O	-0.204141	-1.093783	0.332297
O9	O	-0.429402	-1.318908	0.332265
O10	O	-0.204123	-1.190889	0.429396
O11	O	-0.332323	-1.093702	0.204126
O12	O	-0.332265	-0.965581	0.332255
O13	O	-0.429301	-1.093712	0.557476
O14	O	-0.429325	-0.965551	0.429323
O15	O	-0.332223	-1.190849	0.557507
O16	O	-0.557526	-1.190706	0.332223
O17	O	-0.557482	-1.093631	0.429305
C18	C	-0.380792	-0.936886	0.380787
C19	C	-0.380800	-0.849029	0.380798
C20	C	-0.586184	-1.142176	0.380774
C21	C	-0.674041	-1.142216	0.380788
C22	C	-0.715393	-1.091719	0.330197
C23	C	-0.715243	-1.192747	0.431396
C24	C	-0.797789	-1.192784	0.431413
C25	C	-0.839140	-1.142287	0.380822
C26	C	-0.797946	-1.091753	0.330214
C27	C	-0.838989	-1.243312	0.482026
C28	C	-0.921540	-1.243350	0.482046
C29	C	-0.962893	-1.192856	0.431450
C30	C	-0.921694	-1.142321	0.380839
C31	C	-0.963045	-1.091823	0.330248
C32	C	-0.921848	-1.041291	0.279633
C33	C	-0.839299	-1.041259	0.279618
C34	C	-1.045441	-1.192888	0.431465
C35	C	-1.045599	-1.091857	0.330266
C36	C	-0.380753	-1.142285	0.586973
C37	C	-0.380725	-1.142299	0.674830
C38	C	-0.174650	-1.142350	0.380853
C39	C	-0.086793	-1.142391	0.380874
C40	C	-0.380845	-1.348420	0.380824
C41	C	-0.380856	-1.436277	0.380832
C42	C	-0.330238	-0.477545	0.330367
C43	C	-0.431463	-0.477562	0.431288
C44	C	-0.431452	-0.560108	0.431283
C45	C	-0.380834	-0.601376	0.380819
C46	C	-0.330226	-0.560099	0.330359
C47	C	-0.482064	-0.601392	0.481736
C48	C	-0.482055	-0.683943	0.481733
C49	C	-0.431432	-0.725213	0.431272
C50	C	-0.380822	-0.683930	0.380811
C51	C	-0.330204	-0.725198	0.330347
C52	C	-0.279589	-0.683917	0.279889
C53	C	-0.279603	-0.601368	0.279899
C54	C	-0.431418	-0.807761	0.431262
C55	C	-0.330193	-0.807752	0.330339
C56	C	-0.380826	-1.142265	0.175439
C57	C	-0.380631	-1.142404	0.087583
C58	C	-0.431185	-1.091819	1.046292
C59	C	-0.330097	-1.192968	1.046320
C60	C	-0.330114	-1.192947	0.963774
C61	C	-0.380668	-1.142362	0.922483
C62	C	-0.431205	-1.091798	0.963738
C63	C	-0.279584	-1.243516	0.922513
C64	C	-0.279599	-1.243497	0.839962
C65	C	-0.330149	-1.192908	0.798669
C66	C	-0.380688	-1.142341	0.839930
C67	C	-0.431242	-1.091756	0.798639
C68	C	-0.481777	-1.041185	0.839898
C69	C	-0.481756	-1.041209	0.922446
C70	C	-0.330171	-1.192884	0.716121
C71	C	-0.431262	-1.091735	0.716085
H72	H	-1.079262	-1.050738	0.289065
Br73	Br	-0.550786	-0.545383	0.550189
H74	H	-0.238397	-0.567750	0.238818
H75	H	-0.681847	-1.050579	0.288984
H76	H	-0.681572	-1.233857	0.472590
Br77	Br	-0.977978	-0.972752	0.210986
Br78	Br	-0.261486	-0.863752	0.261854
H79	H	-0.805318	-1.284421	0.523220
H80	H	-0.289026	-0.443930	0.289288
Br81	Br	-0.550390	-0.972543	0.783851
Br82	Br	-0.210987	-1.312170	0.978552
Br83	Br	-0.500177	-0.421555	0.499751
H84	H	-0.522901	-1.000039	0.956046
Br85	Br	-0.550743	-0.739960	0.550209
Br86	Br	-0.977444	-1.311924	0.550740
H87	H	-0.472630	-0.841369	0.472341
Br88	Br	-0.499868	-1.023074	0.660054
Br89	Br	-0.210903	-0.739933	0.211397
Br90	Br	-1.101350	-1.261458	0.500154
H91	H	-0.472328	-1.050643	1.079889
Br92	Br	-0.783384	-0.972684	0.210935
Br93	Br	-0.261500	-1.261624	1.102357
H94	H	-0.238450	-1.284675	0.806376
Br95	Br	-0.261601	-1.261518	0.660130
