data_functionalizedCrystal
_audit_creation_method	'MofGen! by Chris Wilmer'
_symmetry_space_group_name_H-M	'P1'
_symmetry_Int_Tables_number	1
_symmetry_cell_setting	triclinic
loop_
_symmetry_equiv_pos_as_xyz
  x,y,z
_cell_length_a	6.817900
_cell_length_b	13.694049
_cell_length_c	10.943624
_cell_angle_alpha	78.135196
_cell_angle_beta	108.838799
_cell_angle_gamma	106.285429
loop_
_atom_site_label
_atom_site_type_symbol
_atom_site_fract_x
_atom_site_fract_y
_atom_site_fract_z
V1	V	-4.076265	-0.140244	-0.353027
O2	O	-4.075097	0.006767	-0.397278
O3	O	-4.015652	-0.278106	-0.301591
O4	O	-4.054835	-0.138074	-0.529360
O5	O	-4.035643	-0.134234	-0.167932
V6	V	-4.557981	-0.122661	-0.336843
O7	O	-4.341488	-0.178813	-0.388527
O8	O	-4.742956	-0.084092	-0.301343
O9	O	-4.395388	0.015201	-0.388280
O10	O	-4.676546	-0.269671	-0.292593
O11	O	-4.716000	-0.128670	-0.521938
O12	O	-4.356205	-0.124830	-0.160511
C13	C	-3.856809	-0.311714	-0.283373
C14	C	-3.888717	-0.424418	-0.242493
C15	C	-3.846647	-0.462883	-0.110154
C16	C	-3.876652	-0.568773	-0.071729
C17	C	-3.948715	-0.636208	-0.165639
C18	C	-3.990772	-0.597743	-0.297980
C19	C	-3.960780	-0.491843	-0.336409
C20	C	-4.062848	-0.665168	-0.391893
C21	C	-4.104906	-0.626703	-0.524235
C22	C	-4.074913	-0.520813	-0.562657
C23	C	-4.002850	-0.453378	-0.468748
C24	C	-4.092841	-0.771068	-0.353464
C25	C	-4.206974	-0.800028	-0.579719
C26	C	-4.176968	-0.694138	-0.618144
C27	C	-3.906789	-0.133089	-0.573913
C28	C	-3.970470	-0.132227	-0.717744
C29	C	-3.816923	-0.126427	-0.796939
C30	C	-3.982197	-0.212525	-0.872526
C31	C	-3.918688	-0.044604	-0.898437
C32	C	-4.134933	-0.218407	-0.791425
C33	C	-4.071364	-0.050409	-0.817339
C34	C	-4.236768	-0.136532	-0.892887
C35	C	-4.217572	0.048804	-0.406493
C36	C	-4.164903	0.161507	-0.447380
C37	C	-4.167591	-0.129819	-0.115950
C38	C	-4.083149	-0.130675	0.027880
H39	H	-4.109175	-0.489500	-0.670418
H40	H	-3.978429	-0.367153	-0.500027
H41	H	-3.945163	-0.281062	-0.897272
H42	H	-4.225746	-0.291942	-0.744913
H43	H	-4.211207	-0.662804	-0.725898
H44	H	-3.973142	-0.722427	-0.134345
H45	H	-4.265650	-0.854934	-0.656188
C46	C	-3.579462	-0.120672	-0.740905
C47	C	-3.481117	-0.032165	-0.679366
C48	C	-3.262376	-0.026829	-0.627744
H49	H	-3.557449	-0.179422	-0.679436
H50	H	-3.519792	-0.118320	-0.809114
H51	H	-3.540767	-0.034526	-0.611165
H52	H	-3.503069	0.026601	-0.740809
H53	H	-3.202706	-0.024477	-0.695952
H54	H	-3.240385	-0.085584	-0.566280
H55	H	-3.195618	0.033227	-0.585994
C56	C	-4.474206	-0.142190	-0.948799
C57	C	-4.531453	-0.140448	-1.084017
C58	C	-4.750155	-0.145648	-1.135571
H59	H	-4.551396	-0.203920	-0.911864
H60	H	-4.506532	-0.085152	-0.928997
H61	H	-4.499149	-0.197480	-1.103807
H62	H	-4.454320	-0.078723	-1.120986
H63	H	-4.782481	-0.088611	-1.115769
H64	H	-4.827325	-0.207379	-1.098627
H65	H	-4.789022	-0.144458	-1.227322
C66	C	-4.120274	0.041111	-0.784363
C67	C	-4.005740	0.131856	-0.838775
C68	C	-4.050698	0.216194	-0.808408
H69	H	-4.268450	0.038309	-0.818692
H70	H	-4.080246	0.039576	-0.692516
H71	H	-4.045782	0.133391	-0.930604
H72	H	-3.857559	0.134692	-0.804455
H73	H	-4.010669	0.214659	-0.716560
H74	H	-4.198876	0.213382	-0.842738
H75	H	-3.972980	0.277774	-0.845311
C76	C	-3.797749	0.053261	-0.960885
C77	C	-3.860875	0.053208	-1.095981
C78	C	-3.749477	0.143332	-1.153542
H79	H	-3.827930	0.110947	-0.941228
H80	H	-3.649166	0.056733	-0.927958
H81	H	-4.009424	0.049746	-1.128895
H82	H	-3.830689	-0.004458	-1.115674
H83	H	-3.600893	0.146805	-1.120616
H84	H	-3.779666	0.201012	-1.133876
H85	H	-3.792277	0.143304	-1.245209
H86	H	-4.058591	-0.802375	-0.245711
C87	C	-3.830813	-0.610682	0.071902
C88	C	-3.672368	-0.665804	0.104947
C89	C	-3.630127	-0.704444	0.237250
H90	H	-3.783486	-0.555467	0.122494
H91	H	-3.956974	-0.654735	0.088636
H92	H	-3.546232	-0.621754	0.088226
H93	H	-3.719650	-0.721033	0.054390
H94	H	-3.756288	-0.748498	0.253984
H95	H	-3.582809	-0.649223	0.287829
H96	H	-3.522633	-0.741857	0.259685
H97	H	-3.787992	-0.407970	-0.033708
