data_functionalizedCrystal
_audit_creation_method	'MofGen! by Chris Wilmer'
_symmetry_space_group_name_H-M	'P1'
_symmetry_Int_Tables_number	1
_symmetry_cell_setting	triclinic
loop_
_symmetry_equiv_pos_as_xyz
  x,y,z
_cell_length_a	16.959455
_cell_length_b	17.640280
_cell_length_c	16.959447
_cell_angle_alpha	78.772658
_cell_angle_beta	89.983056
_cell_angle_gamma	78.797529
loop_
_atom_site_label
_atom_site_type_symbol
_atom_site_fract_x
_atom_site_fract_y
_atom_site_fract_z
Zn1	Zn	1.272076	-0.314718	-0.383358
Zn2	Zn	1.298735	-0.446905	-0.224487
Zn3	Zn	1.139903	-0.314743	-0.251191
Zn4	Zn	1.166600	-0.446846	-0.356638
O5	O	1.219329	-0.380803	-0.303919
O6	O	1.386226	-0.332267	-0.362291
O7	O	1.277650	-0.429409	-0.117412
O8	O	1.135106	-0.204133	-0.291081
O9	O	1.405813	-0.429385	-0.245569
O10	O	1.232213	-0.204114	-0.388184
O11	O	1.160957	-0.332310	-0.137030
O12	O	1.032831	-0.332252	-0.265171
O13	O	1.180607	-0.429284	-0.470800
O14	O	1.052445	-0.429308	-0.342643
O15	O	1.258100	-0.332210	-0.490432
O16	O	1.303537	-0.557504	-0.219659
O17	O	1.206458	-0.557461	-0.316750
C18	C	1.013957	-0.380777	-0.303906
C19	C	0.926102	-0.380785	-0.303915
C20	C	1.260809	-0.586161	-0.262425
C21	C	1.278627	-0.674015	-0.244700
C22	C	0.544384	-0.330225	-0.263693
C23	C	0.564889	-0.431446	-0.344176
C24	C	0.647433	-0.431435	-0.344174
C25	C	0.678456	-0.380818	-0.303929
C26	C	0.626936	-0.330213	-0.263687
C27	C	0.698960	-0.482045	-0.384408
C28	C	0.781510	-0.482036	-0.384406
C29	C	0.812533	-0.431415	-0.344166
C30	C	0.761007	-0.380807	-0.303923
C31	C	0.792030	-0.330191	-0.263679
C32	C	0.740505	-0.279578	-0.223440
C33	C	0.657959	-0.279592	-0.223447
C34	C	0.895079	-0.431401	-0.344160
C35	C	0.874582	-0.330180	-0.263673
C36	C	1.084293	-0.962977	-0.438860
C37	C	1.101037	-1.045528	-0.422179
C38	C	1.202188	-1.045508	-0.321181
C39	C	1.185455	-0.962955	-0.337856
C40	C	1.126506	-0.921696	-0.396695
C41	C	1.227669	-0.921674	-0.295692
C42	C	1.210934	-0.839128	-0.312362
C43	C	1.151986	-0.797863	-0.371197
C44	C	1.109771	-0.839150	-0.413366
C45	C	1.286614	-0.962935	-0.236849
C46	C	1.328827	-0.921654	-0.194684
C47	C	1.312096	-0.839106	-0.211359
C48	C	1.253148	-0.797841	-0.270194
C49	C	1.354311	-0.797820	-0.169190
C50	C	1.337576	-0.715274	-0.185860
C51	C	1.236414	-0.715296	-0.286864
C52	C	1.425502	-0.380830	-0.303932
C53	C	1.513361	-0.380841	-0.303937
C54	C	1.219358	-0.380737	-0.510100
C55	C	1.219370	-0.380709	-0.597962
C56	C	1.177708	-0.174643	-0.345592
C57	C	1.159971	-0.086789	-0.363351
C58	C	1.158666	-0.330071	-0.979676
C59	C	1.280180	-0.431181	-0.959234
C60	C	1.280170	-0.431200	-0.876685
C61	C	1.219406	-0.380654	-0.845627
C62	C	1.158653	-0.330089	-0.897119
C63	C	1.340918	-0.481769	-0.825185
C64	C	1.340910	-0.481790	-0.742630
C65	C	1.280149	-0.431239	-0.711572
C66	C	1.219393	-0.380672	-0.763069
C67	C	1.158630	-0.330126	-0.732012
C68	C	1.097877	-0.279555	-0.783509
C69	C	1.097892	-0.279539	-0.866060
C70	C	1.280133	-0.431255	-0.629020
C71	C	1.158617	-0.330145	-0.649454
C72	C	1.219334	-0.380811	-0.098551
C73	C	1.219429	-0.380617	-0.010734
H74	H	0.899833	-0.288956	-0.230907
Br75	Br	0.851429	-0.550722	-0.439015
Br76	Br	1.076223	-0.261436	-1.049561
Br77	Br	0.588029	-0.210910	-0.168844
Br78	Br	1.043728	-1.101551	-0.479397
H79	H	1.250182	-1.079113	-0.273272
Br80	Br	0.965004	-0.500090	-0.398756
H81	H	1.300239	-1.030149	-0.223279
H82	H	1.036296	-0.929382	-0.486779
H83	H	0.502428	-0.289015	-0.230934
H84	H	1.188417	-0.681701	-0.334783
Br85	Br	1.129472	-0.685835	-0.394025
Br86	Br	1.362570	-0.499890	-0.559134
Br87	Br	1.029778	-0.783147	-0.493231
Br88	Br	0.656860	-0.550764	-0.438986
Br89	Br	0.782620	-0.210894	-0.168816
H90	H	1.371950	-0.681662	-0.151525
H91	H	1.109138	-0.288980	-0.624175
Br92	Br	1.408827	-0.977655	-0.114834
Br93	Br	1.434303	-0.853824	-0.089332
H94	H	1.329646	-0.472339	-0.984526
Br95	Br	1.015448	-0.210914	-0.935951
Br96	Br	1.015415	-0.210960	-0.741349
H97	H	1.390381	-0.522929	-0.850477
H98	H	0.539626	-0.472661	-0.376936
Br99	Br	1.423360	-0.550418	-0.672749
