data_functionalizedCrystal
_audit_creation_method	'MofGen! by Chris Wilmer'
_symmetry_space_group_name_H-M	'P1'
_symmetry_Int_Tables_number	1
_symmetry_cell_setting	triclinic
loop_
_symmetry_equiv_pos_as_xyz
  x,y,z
_cell_length_a	13.101039
_cell_length_b	16.992694
_cell_length_c	16.992695
_cell_angle_alpha	90.668223
_cell_angle_beta	93.591022
_cell_angle_gamma	86.418263
loop_
_atom_site_label
_atom_site_type_symbol
_atom_site_fract_x
_atom_site_fract_y
_atom_site_fract_z
O1	O	0.085087	-1.054903	-0.162849
O2	O	0.085117	-0.826504	-0.161017
O3	O	0.085094	-0.939787	-0.047733
O4	O	0.085110	-0.941619	-0.276133
O5	O	-0.085335	-0.931660	-0.055876
O6	O	-0.085311	-0.818377	-0.169159
O7	O	-0.085342	-1.046776	-0.170992
Zn8	Zn	-0.112386	-0.931286	-0.171368
Zn9	Zn	0.112161	-0.941994	-0.160640
O10	O	-0.085319	-0.933492	-0.284275
C11	C	-0.000094	-0.793081	-0.162732
C12	C	-0.000082	-0.705597	-0.155703
N13	N	-0.265633	-0.923984	-0.178689
C14	C	-0.000129	-1.080199	-0.169276
C15	C	-0.000134	-1.167684	-0.176305
C16	C	-0.474673	-0.914050	-0.188658
C17	C	-0.525558	-0.959233	-0.143347
C18	C	-0.641876	-0.953706	-0.148894
C19	C	-0.358345	-0.919576	-0.183112
N20	N	0.265408	-0.949302	-0.153313
C21	C	-0.000120	-0.933368	-0.022444
C22	C	-0.000119	-0.926339	0.065040
C23	C	-0.000078	-0.659606	-0.223520
C24	C	-0.000093	-0.577404	-0.216912
C25	C	-0.000104	-0.541196	-0.142485
C26	C	-0.000111	-0.587192	-0.074662
C27	C	-0.000104	-0.669392	-0.081272
C28	C	-0.000133	-0.295880	-0.115092
C29	C	-0.000138	-0.213674	-0.108488
C30	C	-0.000121	-0.203892	-0.250738
C31	C	-0.000108	-0.286094	-0.257341
C32	C	-0.000120	-0.332083	-0.189518
N33	N	-0.000116	-0.457173	-0.135728
N34	N	-0.000116	-0.416104	-0.196276
C35	C	-0.000103	-0.939912	-0.309564
C36	C	-0.000097	-0.946941	-0.397048
C37	C	-0.000129	-0.994157	0.111031
C38	C	-0.000118	-0.987549	0.193232
C39	C	-0.000105	-0.913122	0.229441
C40	C	-0.000092	-0.845299	0.183445
C41	C	-0.000095	-0.851909	0.101245
C42	C	-0.000087	-0.885728	0.474756
C43	C	-0.000087	-0.879123	0.556961
C44	C	-0.000112	-1.021373	0.566743
C45	C	-0.000121	-1.027976	0.484542
C46	C	-0.000102	-0.960154	0.438553
N47	N	-0.000097	-0.906365	0.313464
N48	N	-0.000103	-0.966912	0.354532
H49	H	-0.481765	-1.002068	-0.100391
H50	H	-0.000113	-0.166439	-0.305955
H51	H	-0.518462	-0.871219	-0.231612
O52	O	0.000018	-1.087315	0.611341
C53	C	0.088337	-1.211059	0.649102
C54	C	0.088299	-1.136424	0.598540
H55	H	0.159715	-1.250776	0.638783
H56	H	0.017058	-1.244091	0.631941
H57	H	0.088293	-1.193533	0.714064
H58	H	0.088379	-1.153882	0.533565
H59	H	0.159572	-1.103410	0.615768
H60	H	-0.000072	-0.830502	0.437321
H61	H	-0.000146	-1.054763	0.081556
H62	H	-0.000068	-0.689081	-0.284127
O63	O	-0.000181	-1.053504	0.237787
C64	C	-0.000160	-1.195296	0.238817
C65	C	-0.000113	-1.120661	0.188264
H66	H	-0.000083	-1.249612	0.198800
H67	H	-0.071499	-1.192406	0.274124
H68	H	0.071149	-1.199121	0.280966
H69	H	-0.071373	-1.116790	0.146071
H70	H	0.071274	-1.123583	0.153011
H71	H	-0.000088	-0.539962	-0.272137
H72	H	-0.000106	-0.706837	-0.026047
H73	H	-0.000144	-0.333315	-0.059866
H74	H	-0.000132	-1.088582	0.455066
O75	O	0.000108	-0.321299	-0.329618
C76	C	0.088454	-0.412627	-0.415390
C77	C	0.088325	-0.372808	-0.333510
H78	H	0.159759	-0.454294	-0.418558
H79	H	0.088532	-0.365660	-0.462746
H80	H	0.017115	-0.447449	-0.425468
H81	H	0.159653	-0.337990	-0.323357
H82	H	0.088194	-0.419813	-0.286198
O83	O	-0.000014	-0.178594	-0.036136
C84	C	0.088294	-0.165959	0.091669
C85	C	0.088265	-0.205760	0.009776
H86	H	0.159672	-0.187895	0.128806
H87	H	0.017014	-0.181154	0.122091
H88	H	0.088248	-0.099310	0.084713
H89	H	0.088348	-0.272416	0.016661
H90	H	0.159540	-0.190501	-0.020617
O91	O	-0.000030	-0.772942	0.218491
C92	C	-0.000064	-0.632545	0.200104
C93	C	-0.000108	-0.714443	0.160316
H94	H	-0.000149	-0.585226	0.153086
H95	H	0.071278	-0.629247	0.241722
H96	H	-0.071370	-0.622533	0.234964
H97	H	0.071149	-0.724509	0.125415
H98	H	-0.071498	-0.717702	0.118743
H99	H	-0.000135	-0.557704	-0.014063
O100	O	-0.000018	-0.806763	0.592012
C101	C	-0.000031	-0.666365	0.573639
C102	C	-0.000086	-0.748259	0.533843
H103	H	-0.000108	-0.619041	0.526626
H104	H	0.071312	-0.663076	0.615258
H105	H	-0.071336	-0.656350	0.608499
H106	H	0.071170	-0.758327	0.498941
H107	H	-0.071477	-0.751508	0.492269
H108	H	-0.000087	-0.796684	0.063800
