data_functionalizedCrystal
_audit_creation_method	'MofGen! by Chris Wilmer'
_symmetry_space_group_name_H-M	'P1'
_symmetry_Int_Tables_number	1
_symmetry_cell_setting	triclinic
loop_
_symmetry_equiv_pos_as_xyz
  x,y,z
_cell_length_a	16.625539
_cell_length_b	12.759401
_cell_length_c	12.759400
_cell_angle_alpha	89.983831
_cell_angle_beta	89.974918
_cell_angle_gamma	90.018781
loop_
_atom_site_label
_atom_site_type_symbol
_atom_site_fract_x
_atom_site_fract_y
_atom_site_fract_z
Zn1	Zn	-0.455889	-1.606244	-0.418222
Zn2	Zn	-0.321064	-1.606142	-0.593923
Zn3	Zn	-0.321074	-1.430550	-0.418263
Zn4	Zn	-0.455858	-1.430535	-0.593864
O5	O	-0.388471	-1.518368	-0.506068
O6	O	-0.438013	-1.753252	-0.441536
O7	O	-0.208233	-1.582813	-0.570663
O8	O	-0.338974	-1.453905	-0.271237
O9	O	-0.338958	-1.753177	-0.570623
O10	O	-0.438023	-1.582987	-0.271206
O11	O	-0.208240	-1.453806	-0.441607
O12	O	-0.338944	-1.283527	-0.441550
O13	O	-0.568694	-1.453880	-0.570523
O14	O	-0.437970	-1.283516	-0.570563
O15	O	-0.568717	-1.582973	-0.441479
O16	O	-0.338927	-1.582799	-0.740936
O17	O	-0.437960	-1.453781	-0.740893
C18	C	-0.388455	-1.245401	-0.506055
C19	C	-0.388467	-1.128624	-0.506075
C20	C	-0.388457	-1.518306	-0.779035
C21	C	-0.388478	-1.518375	-0.895812
C22	C	-0.598780	-1.518436	-0.505990
C23	C	-0.688401	-1.518465	-0.505956
C24	C	-1.016577	-1.518514	-0.505839
C25	C	-0.925269	-1.518497	-0.505875
C26	C	-0.852492	-1.518490	-0.505898
C27	C	-0.761178	-1.518473	-0.505933
C28	C	-0.178980	-1.518360	-0.506070
C29	C	-0.089360	-1.518535	-0.505807
C30	C	-0.388488	-1.792401	-0.506082
C31	C	-0.388495	-1.909178	-0.506087
C32	C	-0.439949	-1.073784	-0.573354
C33	C	-0.439965	-0.964060	-0.573358
C34	C	-0.337011	-0.964025	-0.438801
C35	C	-0.337000	-1.073748	-0.438792
C36	C	-0.440096	-1.585559	-0.950568
C37	C	-0.440118	-1.585618	-1.060292
C38	C	-0.336896	-1.451306	-1.060494
C39	C	-0.336879	-1.451243	-0.950772
C40	C	-0.388503	-1.518459	-0.232035
C41	C	-0.388517	-1.518498	-0.115258
H42	H	-0.481887	-0.919414	-0.628142
H43	H	-0.295077	-1.118399	-0.383999
H44	H	-0.482152	-1.640323	-1.104870
O45	O	-0.490146	-1.650727	-0.897017
C46	C	-0.479079	-1.636250	-0.788430
H47	H	-0.416827	-1.601881	-0.773524
H48	H	-0.526862	-1.580247	-0.757302
C49	C	-0.562994	-1.784727	-0.750310
C50	C	-0.486533	-1.742523	-0.732001
H51	H	-0.567595	-1.850279	-0.715500
H52	H	-0.570453	-1.794479	-0.823467
H53	H	-0.602804	-1.738048	-0.724370
H54	H	-0.446725	-1.789196	-0.757953
H55	H	-0.479067	-1.732781	-0.658847
H56	H	-0.481859	-1.118461	-0.628137
H57	H	-0.294845	-1.396529	-0.906186
H58	H	-0.294885	-1.396652	-1.105256
O59	O	-0.287043	-0.910554	-0.373546
C60	C	-0.298105	-0.801950	-0.387960
H61	H	-0.324402	-0.786962	-0.469087
H62	H	-0.341133	-0.770854	-0.325720
C63	C	-0.184244	-0.763977	-0.278548
C64	C	-0.216536	-0.745569	-0.378194
H65	H	-0.133930	-0.729197	-0.272520
H66	H	-0.176792	-0.837146	-0.268834
H67	H	-0.220108	-0.738064	-0.226693
H68	H	-0.180677	-0.771494	-0.430047
H69	H	-0.223980	-0.672403	-0.387917
