data_functionalizedCrystal
_audit_creation_method	'MofGen! by Chris Wilmer'
_symmetry_space_group_name_H-M	'P1'
_symmetry_Int_Tables_number	1
_symmetry_cell_setting	triclinic
loop_
_symmetry_equiv_pos_as_xyz
  x,y,z
_cell_length_a	10.654554
_cell_length_b	9.065215
_cell_length_c	9.130313
_cell_angle_alpha	89.999667
_cell_angle_beta	89.998999
_cell_angle_gamma	84.750770
loop_
_atom_site_label
_atom_site_type_symbol
_atom_site_fract_x
_atom_site_fract_y
_atom_site_fract_z
O1	O	1.668650	0.207262	-0.121822
O2	O	1.303250	0.226998	-0.121819
O3	O	1.493504	0.002446	-0.121814
O4	O	1.478395	0.431814	-0.121827
O5	O	1.493502	0.002452	0.121784
O6	O	1.303248	0.227004	0.121780
O7	O	1.668647	0.207268	0.121777
Cu8	Cu	1.485947	0.217137	0.144021
Cu9	Cu	1.485950	0.217130	-0.144063
O10	O	1.478393	0.431820	0.121772
C11	C	1.256445	0.225551	-0.000019
C12	C	1.116985	0.221211	-0.000018
C13	C	0.933868	0.080837	-0.000033
C14	C	1.064906	0.084914	-0.000018
C15	C	1.038019	0.353439	-0.000018
C16	C	0.906983	0.349361	-0.000022
C17	C	0.949393	-0.074195	-0.000040
C18	C	1.080431	-0.070118	-0.000025
C19	C	1.492052	-0.052530	-0.000017
C20	C	1.487713	-0.216349	-0.000021
C21	C	1.715452	0.208715	-0.000026
C22	C	1.854912	0.213055	-0.000037
C23	C	1.479845	0.486796	-0.000029
C24	C	1.484185	0.650615	-0.000034
N25	N	1.485954	0.217141	0.346643
N26	N	1.485953	0.217114	-0.346686
C27	C	1.570221	0.117743	0.423297
C28	C	1.570218	0.117726	0.576634
C29	C	1.401677	0.316516	0.576649
C30	C	1.401675	0.316525	0.423315
C31	C	1.667531	0.002977	0.423290
C32	C	1.667527	0.002960	0.576627
H33	H	0.842701	0.457026	-0.000008
Cl34	Cl	1.144553	-0.160273	-0.157426
H35	H	1.333058	0.397431	0.639092
H36	H	0.919789	-0.134826	0.101901
Cl37	Cl	1.103489	0.524786	-0.000001
H38	H	0.913570	-0.123563	-0.105220
Cl39	Cl	1.150616	-0.142434	0.162369
H40	H	1.333048	0.397450	0.360905
H41	H	1.645640	-0.110431	0.381673
H42	H	1.758856	0.038915	0.375729
H43	H	1.764139	0.028241	0.618241
H44	H	1.636591	-0.104210	0.624177
