data_functionalizedCrystal
_audit_creation_method	'MofGen! by Chris Wilmer'
_symmetry_space_group_name_H-M	'P1'
_symmetry_Int_Tables_number	1
_symmetry_cell_setting	triclinic
loop_
_symmetry_equiv_pos_as_xyz
  x,y,z
_cell_length_a	23.532407
_cell_length_b	23.532407
_cell_length_c	15.186229
_cell_angle_alpha	89.991614
_cell_angle_beta	89.999328
_cell_angle_gamma	82.848712
loop_
_atom_site_label
_atom_site_type_symbol
_atom_site_fract_x
_atom_site_fract_y
_atom_site_fract_z
O1	O	0.755259	0.069135	-0.073182
O2	O	0.589395	0.079138	-0.073197
O3	O	0.677329	-0.008796	-0.073173
O4	O	0.667325	0.157068	-0.073206
O5	O	0.677323	-0.008797	0.073284
O6	O	0.589389	0.079136	0.073260
O7	O	0.755253	0.069133	0.073275
Zn8	Zn	0.672320	0.074135	0.096521
Zn9	Zn	0.672328	0.074136	-0.096443
O10	O	0.667319	0.157067	0.073251
C11	C	0.568176	0.078882	0.000030
C12	C	0.504959	0.078116	0.000025
C13	C	0.238792	0.022921	0.000060
C14	C	0.298192	0.023632	0.000059
O15	O	0.334937	-0.020153	0.000099
N16	N	0.320818	0.075909	0.000043
C17	C	0.284041	0.127477	0.000036
O18	O	0.308740	0.172007	0.000023
C19	C	0.224642	0.126765	0.000043
C20	C	0.202019	0.074485	0.000050
C21	C	0.216169	-0.029354	0.000068
C22	C	0.156772	-0.030066	0.000067
C23	C	0.119999	0.021499	0.000057
C24	C	0.142623	0.073774	0.000049
C25	C	0.187865	0.178333	0.000042
C26	C	0.128463	0.177616	0.000049
C27	C	0.105840	0.125336	0.000057
C28	C	0.046454	0.124627	0.000038
N29	N	0.023828	0.072351	0.000054
C30	C	0.060600	0.020787	0.000064
C31	C	0.408783	0.128968	0.000023
C32	C	0.468181	0.129681	0.000010
C33	C	0.482328	0.025836	0.000036
C34	C	0.422929	0.025124	0.000042
C35	C	0.386157	0.076692	0.000040
C36	C	-0.064136	0.019297	0.000060
C37	C	-0.123538	0.018590	0.000056
C38	C	-0.137680	0.122435	0.000035
C39	C	-0.078284	0.123142	0.000035
C40	C	-0.041512	0.071568	0.000051
O41	O	0.009675	0.168390	0.000002
O42	O	0.035892	-0.023737	0.000089
C43	C	0.677071	-0.030012	0.000058
C44	C	0.676305	-0.093229	0.000065
C45	C	0.723538	-0.492332	0.000021
C46	C	0.722827	-0.551733	0.000014
O47	O	0.766613	-0.588477	-0.000015
N48	N	0.670551	-0.574359	0.000010
C49	C	0.618982	-0.537581	0.000003
O50	O	0.574452	-0.562281	-0.000001
C51	C	0.619695	-0.478182	0.000004
C52	C	0.671974	-0.455559	0.000017
C53	C	0.775814	-0.469709	0.000033
C54	C	0.776525	-0.410313	0.000041
C55	C	0.724961	-0.373540	0.000038
C56	C	0.672685	-0.396163	0.000025
C57	C	0.568127	-0.441406	-0.000009
C58	C	0.568843	-0.382003	-0.000009
C59	C	0.621123	-0.359381	0.000004
C60	C	0.621832	-0.299994	0.000030
N61	N	0.674109	-0.277368	0.000034
C62	C	0.725673	-0.314141	0.000038
C63	C	0.617491	-0.662324	0.000001
C64	C	0.616778	-0.721722	0.000007
C65	C	0.720623	-0.735869	0.000016
C66	C	0.721335	-0.676470	0.000016
C67	C	0.669767	-0.639698	0.000005
C68	C	0.727163	-0.189404	0.000056
C69	C	0.727869	-0.130002	0.000068
C70	C	0.624025	-0.115860	0.000055
C71	C	0.623318	-0.175257	0.000047
C72	C	0.674891	-0.212028	0.000045
O73	O	0.578069	-0.263215	0.000055
O74	O	0.770196	-0.289433	0.000031
C75	C	0.776472	0.069389	0.000047
C76	C	0.839689	0.070155	0.000046
C77	C	0.667577	0.178283	0.000018
C78	C	0.668343	0.241500	0.000006
N79	N	0.672319	0.074133	0.228214
N80	N	0.672333	0.074133	-0.228135
C81	C	0.711269	0.035209	0.453947
C82	C	0.711271	0.035208	0.546137
C83	C	0.633379	0.113059	0.546125
C84	C	0.633375	0.113057	0.453937
C85	C	0.672323	0.074133	0.407850
C86	C	0.672329	0.074133	0.592228
C87	C	0.672331	0.074132	0.692184
C88	C	0.672321	0.074133	0.307888
H89	H	0.246104	-0.071347	0.000079
O90	O	0.753268	-0.006777	0.404235
H91	H	0.780345	-0.033847	0.451781
O92	O	0.591382	0.155047	0.595838
H93	H	0.564298	0.182111	0.548293
H94	H	0.574207	-0.740135	0.000011
O95	O	0.753283	-0.006766	0.595859
H96	H	0.780368	-0.033827	0.548322
H97	H	0.601658	0.144754	0.416402
H98	H	-0.141954	-0.023984	0.000059
O99	O	0.212258	0.234720	0.000038
H100	H	0.238985	0.237523	0.059729
H101	H	-0.034204	-0.022699	0.000073
H102	H	0.098525	0.219610	0.000051
H103	H	0.404515	-0.017447	0.000049
H104	H	0.769159	-0.219337	0.000051
O105	O	0.511737	-0.465794	-0.000030
H106	H	0.508914	-0.492520	0.059663
O107	O	0.492579	0.186068	-0.000010
H108	H	0.519305	0.188876	0.059680
H109	H	-0.059864	0.165712	0.000028
O110	O	0.561867	-0.622663	0.000002
H111	H	0.559708	-0.595267	0.059694
O112	O	0.568410	-0.076193	0.000050
H113	H	0.577693	-0.031090	0.000047
H114	H	-0.167631	0.164417	0.000023
H115	H	0.512280	-0.016150	0.000044
O116	O	0.132375	-0.086453	0.000098
H117	H	0.167932	-0.122184	0.000118
O118	O	0.369121	0.184591	0.000006
H119	H	0.394839	0.221057	-0.000015
O120	O	0.832915	-0.385921	0.000030
H121	H	0.857681	-0.400728	0.059716
O122	O	0.784258	-0.105601	0.000069
H123	H	0.819993	-0.141154	0.000057
O124	O	0.831434	-0.509368	0.000049
H125	H	0.867898	-0.483647	0.000067
H126	H	0.762610	-0.765821	0.000015
O127	O	0.777721	-0.652070	0.000014
H128	H	0.813454	-0.687625	0.000009
H129	H	0.526850	-0.352065	-0.000019
O130	O	0.566933	-0.199663	0.000036
H131	H	0.531197	-0.164111	0.000031
