data_functionalizedCrystal
_audit_creation_method	'MofGen! by Chris Wilmer'
_symmetry_space_group_name_H-M	'P1'
_symmetry_Int_Tables_number	1
_symmetry_cell_setting	triclinic
loop_
_symmetry_equiv_pos_as_xyz
  x,y,z
_cell_length_a	15.538191
_cell_length_b	9.565339
_cell_length_c	15.712078
_cell_angle_alpha	89.997963
_cell_angle_beta	83.426621
_cell_angle_gamma	90.003605
loop_
_atom_site_label
_atom_site_type_symbol
_atom_site_fract_x
_atom_site_fract_y
_atom_site_fract_z
O1	O	1.162621	0.116279	-0.253355
O2	O	0.919395	0.116277	-0.163286
O3	O	1.008650	0.116271	-0.323997
O4	O	1.073365	0.116285	-0.092645
O5	O	1.008643	-0.116249	-0.323986
O6	O	0.919387	-0.116243	-0.163275
O7	O	1.162614	-0.116241	-0.253345
Zn8	Zn	1.040999	-0.153160	-0.208308
Zn9	Zn	1.041009	0.153196	-0.208322
O10	O	1.073358	-0.116235	-0.092634
C11	C	0.887542	0.000017	-0.153857
C12	C	0.792639	0.000016	-0.125787
N13	N	1.040998	-0.362239	-0.208301
C14	C	0.408769	0.000020	-0.404653
C15	C	0.319598	0.000023	-0.378258
C16	C	0.348308	0.000032	-0.229789
C17	C	0.437483	0.000022	-0.256172
C18	C	0.467707	0.000018	-0.343606
C19	C	0.496421	0.000020	-0.195125
C20	C	0.585589	0.000018	-0.221506
C21	C	0.615820	0.000018	-0.308935
C22	C	0.556875	0.000016	-0.369987
C23	C	0.466196	0.000034	-0.107692
C24	C	0.525133	0.000032	-0.046644
C25	C	0.614303	0.000020	-0.073025
C26	C	0.644534	0.000020	-0.160454
C27	C	0.673248	0.000022	-0.011973
C28	C	0.762416	0.000020	-0.038354
C29	C	0.733702	0.000018	-0.186835
C30	C	0.999696	-0.453439	-0.133991
C31	C	1.081731	-0.546616	-0.142956
C32	C	0.958998	-0.546617	-0.199340
C33	C	1.123084	-0.453365	-0.217244
C34	C	1.000290	-0.453357	-0.273642
C35	C	1.082371	-0.546492	-0.282655
C36	C	1.194466	0.000022	-0.262773
C37	C	1.289369	0.000032	-0.290843
C38	C	0.998074	0.000012	-0.352877
C39	C	0.966562	0.000015	-0.438946
N40	N	1.041015	0.362275	-0.208338
C41	C	1.234107	0.000031	-0.889983
C42	C	1.204477	0.000030	-0.970848
C43	C	1.056009	0.000030	-0.903651
C44	C	1.085627	0.000024	-0.822778
C45	C	1.174677	0.000026	-0.815952
C46	C	1.026196	0.000018	-0.748747
C47	C	1.055812	0.000020	-0.667882
C48	C	1.144858	0.000026	-0.661047
C49	C	1.204292	0.000027	-0.735086
C50	C	0.937147	0.000026	-0.755576
C51	C	0.877716	0.000021	-0.681545
C52	C	0.907331	0.000012	-0.600677
C53	C	0.996377	0.000019	-0.593842
C54	C	0.847897	0.000011	-0.526638
C55	C	0.877512	0.000013	-0.445772
C56	C	1.025993	0.000020	-0.512977
C57	C	1.083934	0.000027	-0.063753
C58	C	1.115446	0.000033	0.022315
H59	H	0.688427	0.000035	-0.330413
C60	C	0.492407	0.119531	-0.520466
C61	C	0.442006	0.000006	-0.500761
H62	H	0.512931	0.119516	-0.579794
H63	H	0.458218	0.200602	-0.507103
H64	H	0.540263	0.119523	-0.487871
H65	H	0.394146	0.000020	-0.533351
H66	H	0.476196	-0.081085	-0.514132
H67	H	0.913036	0.000033	-0.821424
C68	C	1.009547	-0.315696	-0.007726
C69	C	0.952627	-0.398259	-0.049125
H70	H	0.980489	-0.281623	0.044663
H71	H	1.057960	-0.370345	0.003680
H72	H	1.028782	-0.239114	-0.043441
H73	H	0.933396	-0.474848	-0.013412
H74	H	0.904198	-0.343607	-0.060528
C75	C	1.260166	-0.446296	-0.304877
C76	C	1.216753	-0.398266	-0.227383
H77	H	1.317986	-0.412256	-0.311129
H78	H	1.260766	-0.545589	-0.304977
H79	H	1.231193	-0.413593	-0.351082
H80	H	1.245722	-0.430977	-0.181177
H81	H	1.216158	-0.298952	-0.227276
C82	C	0.640513	0.119527	-0.485799
C83	C	0.590111	0.000002	-0.466095
H84	H	0.661037	0.119511	-0.545128
H85	H	0.606324	0.200597	-0.472437
H86	H	0.688369	0.119519	-0.453204
H87	H	0.542252	0.000015	-0.498685
H88	H	0.624302	-0.081090	-0.479466
C89	C	1.369793	0.119568	-0.922355
C90	C	1.331993	0.000036	-0.882464
H91	H	1.430219	0.119575	-0.917705
H92	H	1.360671	0.119551	-0.981106
H93	H	1.344133	0.200643	-0.895296
H94	H	1.357648	-0.081039	-0.909528
H95	H	1.341121	0.000040	-0.823702
H96	H	0.983504	0.000033	-0.909222
H97	H	0.775392	0.000023	-0.532210
C98	C	1.070958	-0.684574	-0.014510
C99	C	1.128223	-0.601933	-0.068389
H100	H	1.099659	-0.718726	0.031524
H101	H	1.022423	-0.629954	0.007561
H102	H	1.051968	-0.761104	-0.046075
H103	H	1.147208	-0.525398	-0.036826
H104	H	1.176774	-0.656556	-0.090461
H105	H	1.117361	-0.587093	-0.345533
H106	H	0.889645	-0.587583	-0.191747
C107	C	0.867859	-0.444985	-0.338629
C108	C	0.953773	-0.397996	-0.348174
H109	H	0.839135	-0.410796	-0.384638
H110	H	0.867058	-0.544273	-0.338882
H111	H	0.839116	-0.411731	-0.285898
H112	H	0.982518	-0.431259	-0.400903
H113	H	0.954579	-0.298687	-0.347930
H114	H	1.168970	0.000027	-0.595199
H115	H	1.098506	0.000007	-0.507420
C116	C	0.879361	0.119536	0.018109
C117	C	0.827209	0.000008	0.028746
H118	H	0.919358	0.119532	0.059538
H119	H	0.910117	0.119528	-0.037732
H120	H	0.843975	0.200613	0.025320
H121	H	0.862594	-0.081070	0.021529
H122	H	0.796451	0.000004	0.084600
H123	H	0.805211	0.000025	-0.687116
C124	C	0.824688	0.119539	-0.315849
C125	C	0.812189	0.000005	-0.364390
H126	H	0.784355	0.119540	-0.265610
H127	H	0.881954	0.119532	-0.300213
H128	H	0.816217	0.200612	-0.348803
H129	H	0.820667	-0.081069	-0.331438
H130	H	0.754910	-0.000001	-0.380025
C131	C	0.300174	0.000019	-0.527680
C132	C	0.254811	0.000022	-0.445370
H133	H	0.260177	0.000015	-0.569109
H134	H	0.335553	0.081097	-0.534882
H135	H	0.335548	-0.081074	-0.534875
H136	H	0.219442	0.081121	-0.438173
H137	H	0.219417	-0.081064	-0.438165
H138	H	0.323687	0.000041	-0.158601
C139	C	1.339978	0.119564	-0.767458
C140	C	1.302178	0.000032	-0.727568
H141	H	1.400404	0.119572	-0.762808
H142	H	1.330856	0.119547	-0.826209
H143	H	1.314318	0.200639	-0.740399
H144	H	1.327833	-0.081043	-0.754631
H145	H	1.311306	0.000037	-0.668806
C146	C	0.330650	0.119561	-0.110328
C147	C	0.368181	0.000039	-0.078689
H148	H	0.270139	0.119557	-0.092427
H149	H	0.356127	0.200634	-0.088883
H150	H	0.340219	0.119534	-0.171136
H151	H	0.358617	0.000070	-0.017881
H152	H	0.342695	-0.081055	-0.100131
H153	H	1.252880	0.000043	-1.031127
C154	C	0.522155	0.119566	0.088033
C155	C	0.491904	0.000038	0.049460
H156	H	0.501636	0.119569	0.147363
H157	H	0.583687	0.119550	0.081061
H158	H	0.501643	0.200644	0.061843
H159	H	0.512421	-0.081040	0.075646
H160	H	0.430358	0.000042	0.056438
H161	H	0.648626	0.000040	0.059215
C162	C	0.736703	0.119542	-0.321528
C163	C	0.766938	0.000014	-0.282943
H164	H	0.757229	0.119543	-0.380856
H165	H	0.675170	0.119527	-0.314563
H166	H	0.757219	0.200619	-0.295340
H167	H	0.746416	-0.081064	-0.309127
H168	H	0.828483	0.000016	-0.289915
