data_functionalizedCrystal
_audit_creation_method	'MofGen! by Chris Wilmer'
_symmetry_space_group_name_H-M	'P1'
_symmetry_Int_Tables_number	1
_symmetry_cell_setting	triclinic
loop_
_symmetry_equiv_pos_as_xyz
  x,y,z
_cell_length_a	19.121102
_cell_length_b	13.897448
_cell_length_c	19.120904
_cell_angle_alpha	87.585296
_cell_angle_beta	89.911827
_cell_angle_gamma	87.572066
loop_
_atom_site_label
_atom_site_type_symbol
_atom_site_fract_x
_atom_site_fract_y
_atom_site_fract_z
Zn1	Zn	1.054890	-0.471842	0.442070
Zn2	Zn	1.059823	-0.626569	0.324836
Zn3	Zn	0.942657	-0.458122	0.319853
Zn4	Zn	0.937635	-0.625920	0.437038
O5	O	0.998751	-0.545613	0.380949
O6	O	1.153650	-0.498380	0.430709
O7	O	1.048448	-0.598754	0.226070
O8	O	0.957582	-0.324963	0.336086
O9	O	1.157275	-0.612057	0.344578
O10	O	1.040039	-0.335043	0.425878
O11	O	0.962366	-0.474996	0.222409
O12	O	0.843885	-0.474367	0.331207
O13	O	0.949022	-0.610952	0.535810
O14	O	0.840195	-0.597648	0.417302
O15	O	1.035169	-0.497751	0.539507
O16	O	1.043578	-0.761461	0.339699
O17	O	0.953806	-0.760985	0.422133
C18	C	0.998701	-0.796223	0.380927
C19	C	0.998743	-0.903441	0.380943
C20	C	0.816602	-0.534450	0.373168
C21	C	0.738677	-0.529698	0.369857
C22	C	0.998814	-1.099743	0.380990
C23	C	0.998772	-0.990506	0.380966
C24	C	0.700168	-0.591740	0.413055
C25	C	0.626950	-0.587263	0.409947
C26	C	0.592241	-0.520747	0.363635
C27	C	0.630755	-0.458698	0.320435
C28	C	0.703973	-0.463172	0.323548
C29	C	0.371267	-0.504021	0.352002
C30	C	0.298045	-0.499555	0.348891
C31	C	0.294244	-0.628119	0.438404
C32	C	0.367463	-0.632590	0.441509
C33	C	0.405970	-0.570538	0.398311
C34	C	0.517400	-0.516172	0.360455
C35	C	0.480810	-0.575110	0.401496
C36	C	1.181611	-0.556821	0.388761
C37	C	1.259536	-0.561597	0.392089
C38	C	0.990985	-0.555809	0.563808
C39	C	0.987675	-0.560155	0.641731
C40	C	0.998820	-0.294026	0.380988
C41	C	0.998850	-0.186815	0.381004
C42	C	1.006528	-0.535389	0.198804
C43	C	1.009973	-0.530781	0.120887
C44	C	1.030970	-0.503261	0.680265
C45	C	1.027852	-0.507339	0.753482
C46	C	0.981442	-0.568317	0.788164
C47	C	0.938142	-0.625213	0.749624
C48	C	0.941258	-0.621129	0.676408
C49	C	0.969789	-0.583593	1.009131
C50	C	0.966678	-0.587675	1.082352
C51	C	1.056387	-0.469799	1.086206
C52	C	1.059501	-0.465724	1.012988
C53	C	1.016199	-0.522617	0.974455
C54	C	0.978255	-0.572490	0.863003
C55	C	1.019383	-0.518438	0.899617
H56	H	0.595599	-0.637786	0.445123
O57	O	0.483649	-0.451690	0.315398
C58	C	0.404925	-0.428172	0.217298
C59	C	0.443125	-0.501307	0.268261
H60	H	0.372141	-0.468258	0.179184
H61	H	0.444987	-0.384597	0.186897
H62	H	0.369329	-0.377504	0.248123
H63	H	0.478720	-0.552037	0.237490
H64	H	0.403026	-0.544812	0.298662
H65	H	1.097295	-0.416072	0.984756
O66	O	1.098373	-0.414564	1.123743
C67	C	1.133361	-0.368647	1.238244
C68	C	1.085762	-0.431242	1.195820
H69	H	1.123193	-0.382125	1.296527
H70	H	1.121677	-0.289295	1.223385
H71	H	1.190493	-0.388231	1.226222
H72	H	1.028614	-0.411743	1.207820
H73	H	1.097506	-0.510578	1.210685
O74	O	0.597121	-0.394130	0.275355
C75	C	0.579729	-0.339071	0.155207
C76	C	0.617878	-0.412236	0.206185
H77	H	0.596486	-0.353696	0.099271
H78	H	0.593628	-0.262872	0.168174
H79	H	0.520786	-0.346520	0.160439
H80	H	0.676829	-0.404875	0.200981
H81	H	0.603921	-0.488406	0.193204
H82	H	0.262883	-0.678637	0.473574
O83	O	0.408698	-0.443659	0.310139
C84	C	0.491809	-0.317983	0.304386
C85	C	0.449441	-0.386275	0.351879
H86	H	0.524771	-0.271584	0.338112
H87	H	0.454458	-0.269609	0.270762
H88	H	0.527601	-0.362255	0.269115
H89	H	0.413645	-0.342079	0.387191
H90	H	0.486832	-0.434651	0.385455
O91	O	0.921548	-0.646773	1.116115
C92	C	0.823345	-0.658526	1.194690
C93	C	0.874418	-0.591497	1.156511
H94	H	0.785218	-0.613861	1.227348
H95	H	0.854012	-0.712840	1.230382
H96	H	0.792963	-0.698503	1.154557
H97	H	0.904812	-0.551456	1.196594
H98	H	0.843711	-0.537244	1.120806
O99	O	0.733846	-0.656255	0.458142
C100	C	0.751167	-0.711380	0.578286
C101	C	0.712996	-0.638247	0.527301
H102	H	0.734313	-0.696859	0.634210
H103	H	0.810118	-0.703924	0.573153
H104	H	0.737290	-0.787553	0.565229
H105	H	0.726815	-0.562043	0.540324
H106	H	0.654054	-0.645788	0.532443
O107	O	0.741463	-0.403044	0.281552
C108	C	0.828102	-0.389638	0.190404
C109	C	0.785703	-0.457846	0.237931
H110	H	0.863870	-0.433918	0.155115
H111	H	0.861075	-0.343181	0.224078
H112	H	0.790707	-0.341308	0.156798
H113	H	0.823047	-0.506237	0.271545
H114	H	0.752721	-0.504237	0.204217
O115	O	0.401065	-0.697231	0.486558
C116	C	0.389567	-0.824320	0.574981
C117	C	0.351424	-0.751140	0.524011
H118	H	0.349450	-0.867939	0.605265
H119	H	0.422283	-0.784307	0.613200
H120	H	0.425218	-0.874939	0.544173
H121	H	0.315737	-0.700502	0.554761
H122	H	0.318752	-0.791216	0.485792
H123	H	0.269787	-0.445379	0.311183
O124	O	0.514598	-0.639594	0.446519
C125	C	0.593235	-0.663097	0.544689
C126	C	0.555017	-0.589964	0.493739
H127	H	0.625912	-0.622998	0.582889
H128	H	0.628915	-0.713741	0.513930
H129	H	0.553127	-0.706699	0.574999
H130	H	0.595076	-0.546295	0.463417
H131	H	0.519325	-0.539384	0.524538
H132	H	1.068764	-0.453609	0.652033
H133	H	1.063109	-0.461013	0.784854
O134	O	1.064558	-0.459264	0.866011
C135	C	1.184781	-0.418553	0.848670
C136	C	1.133695	-0.485616	0.886796
H137	H	1.240690	-0.439847	0.865449
H138	H	1.171941	-0.340810	0.862564
H139	H	1.179527	-0.425394	0.789725
H140	H	1.138920	-0.478859	0.945750
H141	H	1.146549	-0.563332	0.872844
H142	H	0.934540	-0.629933	0.977766
O143	O	0.893119	-0.684425	0.783422
C144	C	0.848532	-0.742916	0.894503
C145	C	0.899564	-0.675831	0.856319
H146	H	0.853715	-0.735976	0.953446
H147	H	0.861431	-0.820669	0.880673
H148	H	0.792629	-0.721715	0.877650
H149	H	0.955484	-0.696945	0.873151
H150	H	0.886604	-0.598095	0.870150
H151	H	0.905995	-0.667448	0.645034
H152	H	0.940471	-0.622143	0.891249
