data_functionalizedCrystal
_audit_creation_method	'MofGen! by Chris Wilmer'
_symmetry_space_group_name_H-M	'P1'
_symmetry_Int_Tables_number	1
_symmetry_cell_setting	triclinic
loop_
_symmetry_equiv_pos_as_xyz
  x,y,z
_cell_length_a	19.288859
_cell_length_b	15.021413
_cell_length_c	15.944480
_cell_angle_alpha	90.007499
_cell_angle_beta	96.698213
_cell_angle_gamma	89.994045
loop_
_atom_site_label
_atom_site_type_symbol
_atom_site_fract_x
_atom_site_fract_y
_atom_site_fract_z
O1	O	0.921594	0.074038	-0.104755
O2	O	1.421594	0.574038	0.395245
O3	O	0.719367	0.074034	-0.118896
O4	O	1.219367	0.574034	0.381104
O5	O	0.826029	0.074044	0.010475
O6	O	1.326029	0.574044	0.510475
O7	O	0.814933	0.074028	-0.234126
O8	O	1.314933	0.574028	0.265874
O9	O	0.826041	-0.074020	0.010467
O10	O	1.326041	0.425980	0.510467
O11	O	0.719380	-0.074030	-0.118904
O12	O	1.219380	0.425970	0.381096
O13	O	0.921607	-0.074026	-0.104763
O14	O	1.421607	0.425974	0.395237
Zn15	Zn	0.820495	-0.097537	-0.111835
Zn16	Zn	1.320495	0.402463	0.388165
Zn17	Zn	0.820479	0.097544	-0.111824
Zn18	Zn	1.320479	0.597544	0.388176
O19	O	0.814945	-0.074036	-0.234134
O20	O	1.314945	0.425964	0.265866
C21	C	0.693496	0.000002	-0.118446
C22	C	1.193496	0.500002	0.381554
C23	C	0.616389	0.000001	-0.117083
C24	C	1.116389	0.500001	0.382917
N25	N	0.820511	-0.230674	-0.111842
N26	N	1.320511	0.269326	0.388158
C27	C	0.052510	-0.000002	-0.183769
C28	C	0.552510	0.499998	0.316231
C29	C	0.124959	0.000003	-0.185058
C30	C	0.624959	0.500003	0.314942
C31	C	0.169482	0.000006	-0.109149
C32	C	0.669482	0.500006	0.390851
C33	C	0.141550	0.000027	-0.031946
C34	C	0.641550	0.500027	0.468054
C35	C	0.069101	0.000032	-0.030660
C36	C	0.569101	0.500032	0.469340
C37	C	0.290619	-0.051867	-0.052539
C38	C	0.790619	0.448133	0.447461
C39	C	0.363066	-0.051877	-0.053828
C40	C	0.863066	0.448123	0.446172
C41	C	0.392937	-0.000004	-0.113112
C42	C	0.892937	0.499996	0.386888
C43	C	0.350351	0.051868	-0.171121
C44	C	0.850351	0.551868	0.328879
C45	C	0.277903	0.051873	-0.169835
C46	C	0.777903	0.551873	0.330165
C47	C	0.248041	0.000002	-0.110535
C48	C	0.748041	0.500002	0.389465
C49	C	0.499419	-0.000014	-0.191707
C50	C	0.999419	0.499986	0.308293
C51	C	0.571871	-0.000004	-0.192993
C52	C	1.071871	0.499996	0.307007
C53	C	0.588460	0.000012	-0.039878
C54	C	1.088460	0.500012	0.460122
C55	C	0.516010	0.000011	-0.038595
C56	C	1.016010	0.500011	0.461405
C57	C	0.471494	-0.000006	-0.114512
C58	C	0.971494	0.499994	0.385488
C59	C	0.869841	-0.470329	-0.052007
C60	C	1.369841	0.029671	0.447993
C61	C	0.807081	-0.529658	-0.035932
C62	C	1.307081	-0.029658	0.464068
C63	C	0.820495	-0.412281	-0.111831
C64	C	1.320495	0.087719	0.388169
C65	C	0.883240	-0.529694	-0.127856
C66	C	1.383240	-0.029694	0.372144
C67	C	0.820485	-0.587705	-0.111819
C68	C	1.320485	-0.087705	0.388181
C69	C	0.757704	-0.470303	-0.095719
C70	C	1.257704	0.029697	0.404281
C71	C	0.833903	-0.470335	-0.187676
C72	C	1.333903	0.029665	0.312324
C73	C	0.771098	-0.529637	-0.171634
C74	C	1.271098	-0.029637	0.328366
C75	C	0.820502	-0.311224	-0.111836
C76	C	1.320502	0.188776	0.388164
C77	C	0.820471	-0.688760	-0.111815
C78	C	1.320471	-0.188760	0.388185
C79	C	0.947478	0.000008	-0.105213
C80	C	1.447478	0.500008	0.394787
C81	C	1.024585	0.000014	-0.106577
C82	C	1.524585	0.500014	0.393423
C83	C	0.825583	0.000016	0.041764
C84	C	1.325583	0.500016	0.541764
C85	C	0.824228	0.000027	0.135008
C86	C	1.324228	0.500027	0.635008
N87	N	0.820468	0.230682	-0.111811
N88	N	1.320468	0.730682	0.388189
C89	C	0.887017	0.000013	0.371013
C90	C	1.387017	0.500013	0.871013
C91	C	0.853158	0.073015	0.421454
C92	C	1.353158	0.573015	0.921454
C93	C	0.821717	0.000017	0.305720
C94	C	1.321717	0.500017	0.805720
C95	C	0.853155	-0.072965	0.421422
C96	C	1.353155	0.427035	0.921422
C97	C	0.819297	0.000003	0.470621
C98	C	1.319297	0.500003	0.970621
C99	C	0.787875	0.073080	0.354933
C100	C	1.287875	0.573080	0.854933
C101	C	0.787882	-0.072965	0.354898
C102	C	1.287882	0.427035	0.854898
C103	C	0.753974	0.000055	0.405306
C104	C	1.253974	0.500055	0.905306
C105	C	0.823113	0.000026	0.210725
C106	C	1.323113	0.500026	0.710725
C107	C	0.817895	0.000001	0.565614
C108	C	1.317895	0.500001	1.065614
C109	C	0.815400	-0.000005	0.734578
C110	C	1.315400	0.499995	1.234578
C111	C	0.816784	-0.000008	0.641339
C112	C	1.316784	0.499992	1.141339
H113	H	0.016268	-0.000012	-0.245587
H114	H	0.516268	0.499988	0.254413
C115	C	0.383204	0.108937	-0.236337
C116	C	0.883204	0.608937	0.263663
N117	N	0.407952	0.151919	-0.285456
N118	N	0.907952	0.651919	0.214544
H119	H	0.845273	-0.444257	-0.251801
H120	H	1.345273	0.055743	0.248199
H121	H	0.936306	-0.555782	-0.141416
H122	H	1.436306	-0.055782	0.358584
H123	H	0.729318	-0.555513	-0.222223
H124	H	1.229318	-0.055513	0.277777
H125	H	0.943262	0.000087	0.355602
H126	H	1.443262	0.500087	0.855602
H127	H	0.880730	0.134735	0.450510
H128	H	1.380730	0.634735	0.950510
C129	C	0.750642	0.156554	0.315863
C130	C	1.250642	0.656554	0.815863
N131	N	0.722602	0.219428	0.286434
N132	N	1.222602	0.719428	0.786434
H133	H	0.697686	0.000094	0.420553
H134	H	1.197686	0.500094	0.920553
H135	H	0.760334	-0.134687	0.325827
H136	H	1.260334	0.365313	0.825827
C137	C	0.926156	-0.435141	0.016376
C138	C	1.426156	0.064859	0.516376
N139	N	0.968568	-0.408636	0.067883
N140	N	1.468568	0.091364	0.567883
C141	C	0.409903	-0.108939	0.009981
C142	C	0.909903	0.391061	0.509981
N143	N	0.445180	-0.151918	0.058044
N144	N	0.945180	0.348082	0.558044
H145	H	0.880751	-0.134678	0.450457
H146	H	1.380751	0.365322	0.950457
H147	H	0.795731	-0.555717	0.028213
H148	H	1.295731	-0.055717	0.528213
H149	H	0.463172	-0.000026	-0.253524
H150	H	0.963172	0.499974	0.246476
H151	H	0.147700	-0.000019	-0.247919
H152	H	0.647700	0.499981	0.252081
H153	H	0.046367	0.000045	0.032202
H154	H	0.546367	0.500045	0.532202
H155	H	0.243232	0.094110	-0.217067
H156	H	0.743232	0.594110	0.282933
H157	H	0.594604	-0.000010	-0.255855
H158	H	1.094604	0.499990	0.244145
C159	C	0.485292	0.000010	0.046324
C160	C	0.985292	0.500010	0.546324
N161	N	0.462156	0.000008	0.110289
N162	N	0.962156	0.500008	0.610289
C163	C	0.637431	0.000018	0.043623
C164	C	1.137431	0.500018	0.543623
N165	N	0.674320	0.000025	0.106518
N166	N	1.174320	0.500025	0.606518
C167	C	0.685999	-0.435211	-0.077291
C168	C	1.185999	0.064789	0.422709
N169	N	0.631994	-0.408778	-0.063406
N170	N	1.131994	0.091222	0.436594
H171	H	0.266305	-0.094111	-0.004258
H172	H	0.766305	0.405889	0.495742
H173	H	0.177805	0.000033	0.029860
H174	H	0.677805	0.500033	0.529860
