data_functionalizedCrystal
_audit_creation_method	'MofGen! by Chris Wilmer'
_symmetry_space_group_name_H-M	'P1'
_symmetry_Int_Tables_number	1
_symmetry_cell_setting	triclinic
loop_
_symmetry_equiv_pos_as_xyz
  x,y,z
_cell_length_a	6.817900
_cell_length_b	17.296766
_cell_length_c	19.453114
_cell_angle_alpha	99.775157
_cell_angle_beta	101.709288
_cell_angle_gamma	102.621013
loop_
_atom_site_label
_atom_site_type_symbol
_atom_site_fract_x
_atom_site_fract_y
_atom_site_fract_z
V1	V	-4.007298	-0.111963	-0.226119
O2	O	-3.994722	0.004520	-0.214543
O3	O	-3.959389	-0.221177	-0.231567
O4	O	-3.950207	-0.110619	-0.321547
O5	O	-4.003969	-0.106804	-0.123940
V6	V	-4.491988	-0.097986	-0.213048
O7	O	-4.265995	-0.142624	-0.254792
O8	O	-4.683488	-0.067326	-0.184376
O9	O	-4.316690	0.011228	-0.207601
O10	O	-4.621960	-0.214469	-0.224625
O11	O	-4.612714	-0.103146	-0.315228
O12	O	-4.325872	-0.099331	-0.117621
C13	C	-3.804791	-0.247789	-0.229805
C14	C	-3.846849	-0.337075	-0.234895
C15	C	-3.832162	-0.367306	-0.172219
C16	C	-3.871700	-0.451201	-0.177004
C17	C	-3.925910	-0.504863	-0.244466
C18	C	-3.940602	-0.474627	-0.307147
C19	C	-3.901079	-0.390734	-0.302361
C20	C	-4.046980	-0.758751	-0.262171
C21	C	-4.086497	-0.842649	-0.266952
C22	C	-4.017595	-0.819216	-0.136809
C23	C	-3.978063	-0.735323	-0.132029
C24	C	-3.992769	-0.705095	-0.194710
C25	C	-3.966318	-0.590616	-0.249359
C26	C	-3.952375	-0.619343	-0.189817
C27	C	-3.793077	-0.106760	-0.344582
C28	C	-3.827685	-0.106383	-0.422640
C29	C	-4.025745	-0.110238	-0.463143
C30	C	-4.058264	-0.109884	-0.536487
C31	C	-3.892720	-0.105692	-0.569329
C32	C	-3.694630	-0.101832	-0.528816
C33	C	-3.662113	-0.102178	-0.455472
N34	N	-3.833168	-0.148108	-0.690816
N35	N	-3.864071	-0.147782	-0.760490
C36	C	-3.990682	-0.104648	-0.790311
N37	N	-4.085257	-0.061863	-0.747827
N38	N	-4.054358	-0.062193	-0.678147
C39	C	-3.927959	-0.105316	-0.648858
C40	C	-4.224014	-0.108118	-0.910341
C41	C	-4.256523	-0.107759	-0.983686
C42	C	-3.892888	-0.099715	-0.976016
C43	C	-3.860381	-0.100066	-0.902671
C44	C	-4.025953	-0.104271	-0.869839
C45	C	-4.134630	0.037835	-0.209361
C46	C	-4.071810	0.127121	-0.204276
C47	C	-4.146345	-0.103192	-0.094582
C48	C	-4.090975	-0.103565	-0.016523
H49	H	-4.010459	-0.634317	-0.304286
F50	F	-3.998312	-0.531741	-0.378945
F51	F	-4.201963	-0.114710	-0.428204
H52	H	-3.908246	-0.575648	-0.134890
H53	H	-3.913062	-0.366123	-0.353399
H54	H	-3.933935	-0.691636	-0.077095
F55	F	-4.269073	-0.113982	-0.579600
F56	F	-4.467334	-0.111859	-1.026791
F57	F	-3.518447	-0.097368	-0.563770
F58	F	-3.451304	-0.098077	-0.412365
H59	H	-4.358831	-0.111539	-0.883608
F60	F	-3.716694	-0.095240	-1.010961
F61	F	-3.649582	-0.095974	-0.859566
H62	H	-3.788005	-0.323619	-0.117284
H63	H	-3.859742	-0.475810	-0.125967
H64	H	-4.130633	-0.886340	-0.321890
F65	F	-4.001957	-0.851394	-0.070104
H66	H	-4.058932	-0.734149	-0.313210
