data_functionalizedCrystal
_audit_creation_method	'MofGen! by Chris Wilmer'
_symmetry_space_group_name_H-M	'P1'
_symmetry_Int_Tables_number	1
_symmetry_cell_setting	triclinic
loop_
_symmetry_equiv_pos_as_xyz
  x,y,z
_cell_length_a	14.853567
_cell_length_b	9.065218
_cell_length_c	8.140239
_cell_angle_alpha	89.998314
_cell_angle_beta	90.000249
_cell_angle_gamma	84.325408
loop_
_atom_site_label
_atom_site_type_symbol
_atom_site_fract_x
_atom_site_fract_y
_atom_site_fract_z
O1	O	1.197788	0.192614	-0.136493
O2	O	1.697788	0.692614	0.363507
O3	O	0.935498	0.215559	-0.136521
O4	O	1.435498	0.715559	0.363479
O5	O	1.072065	-0.010663	-0.136503
O6	O	1.572065	0.489337	0.363497
O7	O	1.061222	0.418836	-0.136511
O8	O	1.561222	0.918836	0.363489
O9	O	1.072057	-0.010666	0.136724
O10	O	1.572057	0.489334	0.636724
O11	O	0.935491	0.215556	0.136706
O12	O	1.435491	0.715556	0.636706
O13	O	1.197780	0.192611	0.136734
O14	O	1.697780	0.692611	0.636734
Zn15	Zn	1.066634	0.204083	0.180101
Zn16	Zn	1.566634	0.704083	0.680101
Zn17	Zn	1.066644	0.204087	-0.179888
Zn18	Zn	1.566644	0.704087	0.320112
O19	O	1.061214	0.418834	0.136716
O20	O	1.561214	0.918834	0.636716
C21	C	1.071019	-0.065631	0.000108
C22	C	1.571019	0.434369	0.500108
C23	C	1.067903	-0.229412	0.000100
C24	C	1.567903	0.270588	0.500100
C25	C	0.901898	0.214518	0.000089
C26	C	1.401898	0.714518	0.500089
C27	C	0.801791	0.211403	0.000079
C28	C	1.301791	0.711403	0.500079
C29	C	0.388166	0.063852	0.000118
C30	C	0.888166	0.563852	0.500118
C31	C	0.368873	0.332609	0.000112
C32	C	0.868873	0.832609	0.500112
C33	C	0.462929	0.335539	0.000106
C34	C	0.962929	0.835539	0.500106
C35	C	0.519607	0.202622	0.000104
C36	C	1.019607	0.702622	0.500104
C37	C	0.482230	0.066777	0.000108
C38	C	0.982230	0.566777	0.500108
C39	C	0.500313	0.471382	0.000086
C40	C	1.000313	0.971382	0.500086
C41	C	0.594374	0.474316	0.000079
C42	C	1.094374	0.974316	0.500079
C43	C	0.651054	0.341399	0.000089
C44	C	1.151054	0.841399	0.500089
C45	C	0.613672	0.205548	0.000094
C46	C	1.113672	0.705548	0.500094
C47	C	0.670350	0.072632	0.000092
C48	C	1.170350	0.572632	0.500092
C49	C	0.632969	-0.063221	0.000109
C50	C	1.132969	0.436779	0.500109
C51	C	0.538910	-0.066141	0.000118
C52	C	1.038910	0.433859	0.500118
C53	C	0.745113	0.344319	0.000081
C54	C	1.245113	0.844319	0.500081
C55	C	0.764414	0.075557	0.000082
C56	C	1.264414	0.575557	0.500082
C57	C	1.231381	0.193652	0.000120
C58	C	1.731381	0.693652	0.500120
C59	C	1.331487	0.196768	0.000120
C60	C	1.831487	0.696768	0.500120
C61	C	1.062260	0.473801	0.000102
C62	C	1.562260	0.973801	0.500102
C63	C	1.065376	0.637582	0.000099
C64	C	1.565376	1.137582	0.500099
N65	N	1.066634	0.204080	0.425783
N66	N	1.566634	0.704080	0.925783
N67	N	1.066652	0.204078	-0.425570
N68	N	1.566652	0.704078	0.074430
H69	H	0.810556	-0.032681	0.000087
H70	H	1.310556	0.467319	0.500087
H71	H	0.357726	-0.046756	0.000138
H72	H	0.857726	0.453244	0.500138
O73	O	0.688160	-0.192195	0.000176
O74	O	1.188160	0.307805	0.500176
C75	C	0.841622	-0.306770	0.000042
C76	C	1.341622	0.193230	0.500042
C77	C	0.779220	-0.160604	0.000006
C78	C	1.279220	0.339396	0.500006
H79	H	0.915257	-0.281280	-0.000131
H80	H	1.415257	0.218720	0.499869
H81	H	0.827970	-0.373633	0.114421
H82	H	1.327970	0.126367	0.614421
H83	H	0.827828	-0.373617	-0.114269
H84	H	1.327828	0.126383	0.385731
H85	H	0.792978	-0.093638	0.114239
H86	H	1.292978	0.406362	0.614239
H87	H	0.792884	-0.093853	-0.114449
H88	H	1.292884	0.406147	0.385551
H89	H	0.508466	-0.176745	0.000171
H90	H	1.008466	0.323255	0.500171
H91	H	0.322721	0.440823	0.000099
H92	H	0.822721	0.940823	0.500099
H93	H	0.454159	0.579594	0.000071
H94	H	0.954159	1.079594	0.500071
O95	O	0.781574	0.476139	-0.000006
O96	O	1.281574	0.976139	0.499994
C97	C	0.917926	0.599759	0.000085
C98	C	1.417926	1.099759	0.500085
C99	C	0.876755	0.450361	0.000139
C100	C	1.376755	0.950361	0.500139
H101	H	0.994885	0.578969	0.000237
H102	H	1.494885	1.078969	0.500237
H103	H	0.894740	0.665469	-0.114292
H104	H	1.394740	1.165469	0.385708
H105	H	0.894620	0.665451	0.114398
H106	H	1.394620	1.165451	0.614398
H107	H	0.900042	0.384548	-0.114097
H108	H	1.400042	0.884548	0.385903
H109	H	0.899937	0.384763	0.114592
H110	H	1.399937	0.884763	0.614592
H111	H	0.624801	0.584935	0.000065
H112	H	1.124801	1.084935	0.500065
