data_functionalizedCrystal
_audit_creation_method	'MofGen! by Chris Wilmer'
_symmetry_space_group_name_H-M	'P1'
_symmetry_Int_Tables_number	1
_symmetry_cell_setting	triclinic
loop_
_symmetry_equiv_pos_as_xyz
  x,y,z
_cell_length_a	11.792241
_cell_length_b	9.065218
_cell_length_c	10.868271
_cell_angle_alpha	89.995547
_cell_angle_beta	90.001559
_cell_angle_gamma	95.395350
loop_
_atom_site_label
_atom_site_type_symbol
_atom_site_fract_x
_atom_site_fract_y
_atom_site_fract_z
O1	O	0.166426	-1.958842	0.102326
O2	O	0.499759	-1.625509	0.435659
O3	O	0.833093	-1.292176	0.768993
O4	O	0.180077	-1.529429	0.102328
O5	O	0.513411	-1.196096	0.435661
O6	O	0.846744	-0.862763	0.768995
O7	O	0.008139	-1.754556	0.102318
O8	O	0.341472	-1.421223	0.435652
O9	O	0.674806	-1.087890	0.768985
O10	O	0.338364	-1.733715	0.102336
O11	O	0.671698	-1.400382	0.435669
O12	O	1.005031	-1.067048	0.769002
O13	O	0.008144	-1.754536	-0.102326
O14	O	0.341478	-1.421203	0.231007
O15	O	0.674811	-1.087869	0.564340
O16	O	0.180083	-1.529409	-0.102317
O17	O	0.513416	-1.196076	0.231017
O18	O	0.846750	-0.862742	0.564350
O19	O	0.166431	-1.958822	-0.102319
O20	O	0.499765	-1.625488	0.231015
O21	O	0.833098	-1.292155	0.564348
Zn22	Zn	0.173258	-1.744112	-0.134809
Zn23	Zn	0.506591	-1.410779	0.198524
Zn24	Zn	0.839925	-1.077445	0.531857
Zn25	Zn	0.173251	-1.744139	0.134819
Zn26	Zn	0.506584	-1.410806	0.468152
Zn27	Zn	0.839918	-1.077472	0.801485
O28	O	0.338370	-1.733695	-0.102309
O29	O	0.671703	-1.400361	0.231024
O30	O	1.005037	-1.067028	0.564358
C31	C	-0.034156	-1.753237	-0.000004
C32	C	0.299177	-1.419904	0.333330
C33	C	0.632510	-1.086570	0.666663
C34	C	-0.160192	-1.749319	-0.000002
C35	C	0.173141	-1.415985	0.333331
C36	C	0.506475	-1.082652	0.666664
C37	C	0.178768	-1.474445	0.000006
C38	C	0.512102	-1.141112	0.333339
C39	C	0.845435	-0.807778	0.666672
C40	C	0.174845	-1.310639	0.000006
C41	C	0.508179	-0.977305	0.333340
C42	C	0.841512	-0.643972	0.666673
C43	C	0.167741	-2.013806	0.000006
C44	C	0.501074	-1.680473	0.333340
C45	C	0.834407	-1.347140	0.666673
C46	C	0.171664	-2.177612	0.000014
C47	C	0.504997	-1.844279	0.333347
C48	C	0.838330	-1.510946	0.666681
C49	C	-0.390944	-1.742113	0.000018
C50	C	-0.057611	-1.408780	0.333352
C51	C	0.275723	-1.075447	0.666685
C52	C	-0.262537	-1.746117	0.000007
C53	C	0.070797	-1.412783	0.333340
C54	C	0.404130	-1.079450	0.666674
C55	C	0.380665	-1.735014	0.000016
C56	C	0.713999	-1.401681	0.333349
C57	C	1.047332	-1.068347	0.666682
C58	C	0.506701	-1.738933	0.000023
C59	C	0.840034	-1.405599	0.333356
C60	C	1.173367	-1.072266	0.666689
N61	N	0.173262	-1.744104	-0.318823
N62	N	0.506596	-1.410771	0.014510
N63	N	0.839929	-1.077438	0.347843
C64	C	0.173263	-1.744116	-0.430161
C65	C	0.506596	-1.410783	-0.096828
C66	C	0.839929	-1.077449	0.236506
C67	C	0.173252	-1.744135	-0.569839
C68	C	0.506586	-1.410802	-0.236505
C69	C	0.839919	-1.077469	0.096828
N70	N	0.173238	-1.744158	0.318833
N71	N	0.506571	-1.410825	0.652166
N72	N	0.839904	-1.077492	0.985500
