data_functionalizedCrystal
_audit_creation_method	'MofGen! by Chris Wilmer'
_symmetry_space_group_name_H-M	'P1'
_symmetry_Int_Tables_number	1
_symmetry_cell_setting	triclinic
loop_
_symmetry_equiv_pos_as_xyz
  x,y,z
_cell_length_a	6.817900
_cell_length_b	18.024422
_cell_length_c	7.076105
_cell_angle_alpha	88.629979
_cell_angle_beta	117.701832
_cell_angle_gamma	76.965537
loop_
_atom_site_label
_atom_site_type_symbol
_atom_site_fract_x
_atom_site_fract_y
_atom_site_fract_z
V1	V	-4.197725	0.104221	-0.665911
V2	V	-3.697725	0.604221	-0.165911
O3	O	-4.183998	-0.006233	-0.652299
O4	O	-3.683998	0.493767	-0.152299
O5	O	-4.146136	0.207831	-0.662256
O6	O	-3.646136	0.707831	-0.162256
O7	O	-4.224771	0.102080	-0.955927
O8	O	-3.724771	0.602080	-0.455927
O9	O	-4.104818	0.100249	-0.356595
O10	O	-3.604818	0.600249	0.143405
V11	V	-4.671990	0.091073	-0.628805
V12	V	-4.171990	0.591073	-0.128805
O13	O	-4.479292	0.133062	-0.747306
O14	O	-3.979292	0.633062	-0.247306
O15	O	-4.840621	0.062231	-0.547410
O16	O	-4.340621	0.562231	-0.047410
O17	O	-4.500373	-0.012537	-0.632459
O18	O	-4.000373	0.487463	-0.132459
O19	O	-4.803115	0.201527	-0.642417
O20	O	-4.303115	0.701527	-0.142417
O21	O	-4.882294	0.095044	-0.938120
O22	O	-4.382294	0.595044	-0.438120
O23	O	-4.421738	0.093214	-0.338789
O24	O	-3.921738	0.593214	0.161211
C25	C	-3.987920	0.233106	-0.651983
C26	C	-3.487920	0.733106	-0.151983
C27	C	-4.027530	0.317805	-0.650929
C28	C	-3.527530	0.817805	-0.150929
C29	C	-4.455506	0.841563	-0.655007
C30	C	-3.955506	1.341563	-0.155007
C31	C	-4.418282	0.761980	-0.656007
C32	C	-3.918282	1.261980	-0.156007
C33	C	-4.214860	0.718330	-0.645834
C34	C	-3.714860	1.218330	-0.145834
C35	C	-4.048644	0.754267	-0.634637
C36	C	-3.548644	1.254267	-0.134637
C37	C	-4.085863	0.833848	-0.633621
C38	C	-3.585863	1.333848	-0.133621
C39	C	-3.898538	0.433325	-0.638731
C40	C	-3.398538	0.933325	-0.138731
C41	C	-3.861333	0.353738	-0.639754
C42	C	-3.361333	0.853738	-0.139754
C43	C	-4.230956	0.361456	-0.661117
C44	C	-3.730956	0.861456	-0.161117
C45	C	-4.268176	0.441038	-0.660101
C46	C	-3.768176	0.941038	-0.160101
C47	C	-4.101952	0.476967	-0.648894
C48	C	-3.601952	0.976967	-0.148894
C49	C	-4.142316	0.563260	-0.647805
C50	C	-3.642316	1.063260	-0.147805
C51	C	-4.174502	0.632039	-0.646938
C52	C	-3.674502	1.132039	-0.146938
C53	C	-4.328900	0.962192	-0.642732
C54	C	-3.828900	1.462192	-0.142732
C55	C	-4.289304	0.877495	-0.643817
C56	C	-3.789304	1.377495	-0.143817
C57	C	-4.095179	0.098205	-0.026586
C58	C	-3.595179	0.598205	0.473414
C59	C	-4.221641	0.097100	-0.268128
C60	C	-3.721641	0.597100	0.231872
H61	H	-4.621157	0.877098	-0.663304
H62	H	-4.121157	1.377098	-0.163304
H63	H	-4.553628	0.732729	-0.665128
H64	H	-4.053628	1.232729	-0.165128
Br65	Br	-3.860288	0.882613	-0.618423
Br66	Br	-3.360288	1.382613	-0.118423
H67	H	-3.763170	0.462567	-0.629579
H68	H	-3.263170	0.962567	-0.129579
Br69	Br	-4.456548	0.312691	-0.676323
Br70	Br	-3.956548	0.812691	-0.176323
Br71	Br	-3.772549	0.695027	-0.620787
Br72	Br	-3.272549	1.195027	-0.120787
Br73	Br	-3.585246	0.294499	-0.625949
Br74	Br	-3.085246	0.794499	-0.125949
H75	H	-4.433823	0.476574	-0.668396
H76	H	-3.933823	0.976574	-0.168396
