data_functionalizedCrystal
_audit_creation_method	'MofGen! by Chris Wilmer'
_symmetry_space_group_name_H-M	'P1'
_symmetry_Int_Tables_number	1
_symmetry_cell_setting	triclinic
loop_
_symmetry_equiv_pos_as_xyz
  x,y,z
_cell_length_a	23.096457
_cell_length_b	23.196402
_cell_length_c	23.096457
_cell_angle_alpha	60.008702
_cell_angle_beta	90.011518
_cell_angle_gamma	60.000277
loop_
_atom_site_label
_atom_site_type_symbol
_atom_site_fract_x
_atom_site_fract_y
_atom_site_fract_z
Zr1	Zr	0.557764	0.631008	-0.075975
O2	O	0.465297	0.751274	-0.168417
O3	O	0.586108	0.510743	-0.047640
O4	O	0.586082	0.631010	-0.168426
O5	O	0.465345	0.631005	0.047651
O6	O	0.681363	0.631012	-0.168430
O7	O	0.465322	0.631006	-0.047631
O8	O	0.681408	0.415876	0.047634
O9	O	0.465299	0.846141	-0.168412
O10	O	0.669306	0.560211	-0.035554
O11	O	0.598216	0.560209	0.035556
O12	O	0.598186	0.701808	-0.106653
O13	O	0.527096	0.701806	-0.035543
Zr14	Zr	0.709761	0.631008	0.075983
Zr15	Zr	0.709725	0.631011	-0.075981
Zr16	Zr	0.557800	0.631006	0.075989
Zr17	Zr	0.557768	0.782311	-0.075969
Zr18	Zr	0.709757	0.479706	0.075977
O19	O	0.681417	0.751274	0.047648
O20	O	0.681366	0.751277	-0.168424
O21	O	0.465348	0.751270	0.047656
O22	O	0.802228	0.510743	0.168425
O23	O	0.802177	0.510747	-0.047648
O24	O	0.586159	0.510740	0.168432
O25	O	0.802180	0.631012	-0.047643
O26	O	0.681443	0.631006	0.168434
O27	O	0.586162	0.631005	0.168438
O28	O	0.802203	0.631010	0.047639
O29	O	0.586088	0.846143	-0.168417
O30	O	0.681437	0.415874	0.168425
O31	O	0.802226	0.415876	0.168420
O32	O	0.802197	0.415878	0.047630
O33	O	0.465328	0.846139	-0.047622
O34	O	0.586117	0.846141	-0.047626
O35	O	0.669339	0.560209	0.106661
O36	O	0.740429	0.560211	0.035551
O37	O	0.669309	0.701808	-0.035548
O38	O	0.598220	0.701806	0.035562
C39	C	0.633757	0.441752	-0.000004
C40	C	0.633756	0.377520	-0.000007
C41	C	0.670859	0.347351	-0.037128
C42	C	0.670866	0.286990	-0.037123
C43	C	0.633756	0.256812	-0.000005
C44	C	0.596651	0.286985	0.037125
C45	C	0.596651	0.347339	0.037124
C46	C	0.571582	0.194782	-0.005300
C47	C	0.571580	0.134432	-0.005304
C48	C	0.633756	0.070657	0.000002
C49	C	0.695934	0.067247	0.005298
C50	C	0.695934	0.127601	0.005297
C51	C	0.633752	0.191368	0.000001
C52	C	0.670870	-0.024963	-0.037115
C53	C	0.670879	-0.085329	-0.037104
C54	C	0.596657	-0.085327	0.037139
C55	C	0.596655	-0.024968	0.037132
C56	C	0.633760	0.005213	0.000002
C57	C	0.443682	0.631005	0.000011
C58	C	0.379171	0.631004	0.000013
C59	C	0.385989	0.557094	0.037120
C60	C	0.325373	0.557093	0.037123
C61	C	0.257940	0.631006	0.000006
C62	C	0.251125	0.704926	-0.037102
C63	C	0.311740	0.704925	-0.037098
N64	N	0.135132	0.686024	-0.060403
N65	N	0.077552	0.686020	-0.060406
C66	C	0.075307	0.631013	-0.000007
N67	N	0.132824	0.575999	0.060393
N68	N	0.190410	0.576000	0.060394
C69	C	0.192209	0.631015	-0.000002
C70	C	0.016402	0.557097	0.037106
C71	C	-0.044216	0.557099	0.037111
C72	C	-0.118465	0.704934	-0.037121
C73	C	-0.057847	0.704930	-0.037119
C74	C	0.009584	0.631009	-0.000007
C75	C	0.823843	0.631012	-0.000003
C76	C	0.888354	0.631013	-0.000005
C77	C	0.633717	0.631012	-0.190080
C78	C	0.633702	0.631013	-0.254592
C79	C	0.633768	0.820265	0.000012
C80	C	0.633770	0.884497	0.000015
C81	C	0.596582	0.704923	-0.322009
C82	C	0.596600	0.704924	-0.382625
C83	C	0.633729	0.631011	-0.375821
C84	C	0.670857	0.557091	-0.308392
C85	C	0.670844	0.557092	-0.247778
N86	N	0.628605	0.575993	-0.443379
N87	N	0.628614	0.575997	-0.500962
C88	C	0.633772	0.631003	-0.558446
N89	N	0.638908	0.686018	-0.556178
N90	N	0.638895	0.686016	-0.498590
C91	C	0.633748	0.631002	-0.441543
C92	C	0.596670	0.704920	-0.691593
C93	C	0.596693	0.704918	-0.752209
C94	C	0.670945	0.557083	-0.677973
C95	C	0.670927	0.557087	-0.617359
C96	C	0.633785	0.631008	-0.624174
C97	C	0.633808	0.631005	0.190088
C98	C	0.633823	0.631004	0.254600
C99	C	0.823838	0.441755	-0.000011
C100	C	0.888347	0.377525	-0.000016
C101	C	0.633803	0.441749	0.190079
C102	C	0.633816	0.377516	0.254589
C103	C	0.823883	0.441752	0.190072
C104	C	0.888408	0.377520	0.254580
C105	C	0.443642	0.820265	-0.190064
C106	C	0.379117	0.884497	-0.254572
C107	C	0.443688	0.820261	0.000019
C108	C	0.379178	0.884492	0.000024
C109	C	0.633723	0.820268	-0.190071
C110	C	0.633709	0.884501	-0.254581
C111	C	0.881516	0.347361	-0.037141
C112	C	0.942124	0.287018	-0.037160
C113	C	1.009563	0.256835	-0.000050
C114	C	1.016393	0.287004	0.037076
C115	C	0.955785	0.347351	0.037091
C116	C	0.670948	0.347352	0.322006
C117	C	0.670958	0.287006	0.382626
C118	C	0.633840	0.256823	0.375827
C119	C	0.596703	0.286993	0.308403
C120	C	0.596689	0.347341	0.247785
C121	C	0.955824	0.347358	0.247754
C122	C	1.016458	0.287013	0.308360
C123	C	1.009674	0.256829	0.375791
C124	C	0.942251	0.286997	0.382615
C125	C	0.881619	0.347345	0.322010
C126	C	0.311701	0.914667	-0.247746
C127	C	0.251067	0.975030	-0.308352
C128	C	0.257851	1.005217	-0.375783
C129	C	0.325274	0.975045	-0.382607
C130	C	0.385907	0.914687	-0.322002
C131	C	0.386009	0.914662	0.037143
C132	C	0.325401	0.975022	0.037145
C133	C	0.257963	1.005207	0.000033
C134	C	0.251133	0.975035	-0.037091
C135	C	0.311740	0.914680	-0.037097
C136	C	0.670835	0.914665	-0.247759
C137	C	0.670836	0.975011	-0.308368
C138	C	0.633707	1.005195	-0.375797
C139	C	0.596580	0.975024	-0.382617
C140	C	0.596584	0.914676	-0.322010
H141	H	0.566435	0.371904	0.067353
N142	N	0.332712	0.477377	0.077131
H143	H	0.309223	0.474074	0.114483
H144	H	0.384638	0.430592	0.100597
H145	H	0.196216	0.765106	-0.067323
N146	N	1.074927	0.191739	-0.000062
H147	H	1.118690	0.177189	0.029081
H148	H	1.074871	0.212796	-0.050355
H149	H	0.306164	0.890091	-0.192846
H150	H	0.961357	0.371902	0.067327
H151	H	0.633710	1.054335	-0.425141
H152	H	0.566351	0.999610	-0.437526
N153	N	0.458742	0.882113	0.077174
H154	H	0.453862	0.910395	0.100683
H155	H	0.485498	0.892616	0.043089
H156	H	0.566348	0.890122	-0.327574
H157	H	0.826610	0.371935	-0.067370
H158	H	0.306168	0.890117	-0.067321
H159	H	0.208618	1.054352	0.000043
N160	N	0.332777	1.007556	0.077188
H161	H	0.384696	0.979266	0.100702
H162	H	0.309251	0.997057	0.114503
N163	N	0.934740	0.254485	-0.077200
H164	H	0.958242	0.193902	-0.043164
H165	H	0.958202	0.265052	-0.114565
H166	H	0.566482	0.262408	0.302877
H167	H	0.701070	0.890099	-0.192861
H168	H	0.440798	0.890123	-0.327568
H169	H	1.071352	0.262456	0.302791
N170	N	0.178394	1.007581	-0.077104
H171	H	0.141042	1.050386	-0.071456
H172	H	0.172789	0.961482	-0.057601
H173	H	0.701074	0.371921	-0.067360
N174	N	0.710902	0.477369	-0.301047
H175	H	0.762828	0.445059	-0.274260
H176	H	0.705221	0.488650	-0.349699
N177	N	0.710988	0.379895	0.329356
H178	H	0.691519	0.404937	0.356130
H179	H	0.705341	0.422671	0.280706
H180	H	0.306183	0.765113	-0.067313
N181	N	0.556636	0.007577	0.077171
H182	H	0.533128	-0.020699	0.100687
H183	H	0.519314	0.068160	0.043094
H184	H	0.701202	0.262449	0.437520
N185	N	0.710887	0.254439	-0.077161
H186	H	0.734393	0.282716	-0.100682
H187	H	0.676792	0.264942	-0.114471
H188	H	0.701072	0.496904	-0.192882
H189	H	0.746566	0.015314	0.009628
N190	N	0.762990	0.123926	0.011010
H191	H	0.802381	0.074370	0.014371
H192	H	0.776827	0.120278	0.054812
H193	H	0.071308	0.496907	0.067340
H194	H	0.196174	0.999586	-0.302782
H195	H	0.701068	0.999570	-0.302800
N196	N	0.633859	0.191731	0.441211
H197	H	0.663019	0.177205	0.484949
H198	H	0.654968	0.141691	0.441178
H199	H	0.566454	0.371893	0.192893
N200	N	-0.191191	0.784653	-0.077151
H201	H	-0.196880	0.816970	-0.129075
H202	H	-0.196819	0.816899	-0.057620
N203	N	0.710890	0.007592	-0.077159
H204	H	0.762820	-0.038448	-0.057692
H205	H	0.705198	0.050421	-0.071519
N206	N	0.710904	-0.117875	-0.077141
H207	H	0.734406	-0.089594	-0.100662
H208	H	0.676812	-0.107378	-0.114449
H209	H	-0.038658	0.496910	0.067332
H210	H	0.520951	0.137218	-0.009620
N211	N	0.556637	-0.117873	0.077180
H212	H	0.562268	-0.160688	0.071551
H213	H	0.504725	-0.071784	0.057696
N214	N	1.089132	0.254447	0.077100
H215	H	1.126484	0.211640	0.071456
H216	H	1.094764	0.229442	0.129009
N217	N	0.963160	0.379896	0.175034
H218	H	0.989933	0.404939	0.169357
H219	H	0.914503	0.422671	0.137710
N220	N	0.504518	0.263566	-0.011021
H221	H	0.465129	0.256573	-0.014382
H222	H	0.490680	0.317296	-0.054824
N223	N	-0.065196	0.784647	-0.077151
H224	H	-0.117111	0.831472	-0.100667
H225	H	-0.041668	0.787860	-0.114464
H226	H	0.566436	0.262410	0.067347
N227	N	0.332585	1.007607	-0.455338
H228	H	0.283942	1.050418	-0.492689
H229	H	0.359378	0.961520	-0.460961
H230	H	0.440890	0.496902	0.067334
N231	N	0.556683	0.784639	-0.824928
H232	H	0.533161	0.831463	-0.820043
H233	H	0.519373	0.787877	-0.851730
H234	H	0.566428	0.765110	-0.697142
N235	N	0.711001	0.477362	-0.670627
H236	H	0.734517	0.430539	-0.618717
H237	H	0.748321	0.474155	-0.694145
N238	N	0.710962	0.477370	-0.544641
H239	H	0.734487	0.430545	-0.549526
H240	H	0.676876	0.474148	-0.517888
H241	H	0.936738	0.262412	0.437525
N242	N	0.556533	0.784647	-0.329357
H243	H	0.533023	0.831470	-0.381267
H244	H	0.590614	0.787864	-0.305811
N245	N	0.192451	1.070317	-0.441147
H246	H	0.148716	1.084842	-0.426584
H247	H	0.192473	1.049270	-0.470298
H248	H	1.059051	0.207690	0.425134
N249	N	0.556562	0.784643	-0.455350
H250	H	0.533032	0.831471	-0.450469
H251	H	0.519255	0.787853	-0.482125
H252	H	0.826728	0.371895	0.327577
