data_functionalizedCrystal
_audit_creation_method	'MofGen! by Chris Wilmer'
_symmetry_space_group_name_H-M	'P1'
_symmetry_Int_Tables_number	1
_symmetry_cell_setting	triclinic
loop_
_symmetry_equiv_pos_as_xyz
  x,y,z
_cell_length_a	14.044220
_cell_length_b	10.654549
_cell_length_c	13.101039
_cell_angle_alpha	93.389233
_cell_angle_beta	86.332523
_cell_angle_gamma	88.836827
loop_
_atom_site_label
_atom_site_type_symbol
_atom_site_fract_x
_atom_site_fract_y
_atom_site_fract_z
O1	O	0.128041	1.687555	0.085194
O2	O	0.628041	2.187555	0.585194
O3	O	0.140735	1.323353	0.085201
O4	O	0.640735	1.823353	0.585201
O5	O	-0.003632	1.499987	0.085188
O6	O	0.496368	1.999987	0.585188
O7	O	0.272408	1.510922	0.085208
O8	O	0.772408	2.010922	0.585208
O9	O	0.006744	1.487315	-0.085241
O10	O	0.506744	1.987315	0.414759
O11	O	0.151110	1.310682	-0.085228
O12	O	0.651110	1.810682	0.414772
O13	O	0.138417	1.674884	-0.085235
O14	O	0.638417	2.174884	0.414765
Zn15	Zn	0.146411	1.490771	-0.112291
Zn16	Zn	0.646411	1.990771	0.387709
Zn17	Zn	0.132741	1.507466	0.112257
Zn18	Zn	0.632741	2.007466	0.612257
O19	O	0.282783	1.498250	-0.085221
O20	O	0.782783	1.998250	0.414779
C21	C	0.144990	1.270126	-0.000012
C22	C	0.644990	1.770126	0.499988
C23	C	0.142202	1.130402	-0.000010
C24	C	0.642202	1.630402	0.499990
C25	C	-0.033790	1.488865	-0.000027
C26	C	0.466210	1.988865	0.499973
C27	C	-0.139110	1.474590	-0.000028
C28	C	0.360890	1.974590	0.499972
C29	C	0.224576	0.928166	-0.000008
C30	C	0.724576	1.428166	0.499992
C31	C	0.227203	1.059451	-0.000002
C32	C	0.727203	1.559451	0.499998
C33	C	0.054568	1.070063	-0.000014
C34	C	0.554568	1.570063	0.499986
C35	C	0.051942	0.938781	-0.000013
C36	C	0.551942	1.438781	0.499987
C37	C	-0.331943	1.448492	-0.000013
C38	C	0.168057	1.948492	0.499987
C39	C	-0.388911	1.549740	-0.000012
C40	C	0.111089	2.049740	0.499988
C41	C	-0.496211	1.535219	-0.000003
C42	C	0.003789	2.035219	0.499997
C43	C	-0.224634	1.463011	-0.000021
C44	C	0.275366	1.963011	0.499979
C45	C	0.312941	1.509372	-0.000004
C46	C	0.812941	2.009372	0.499996
C47	C	0.418261	1.523648	0.000003
C48	C	0.918261	2.023648	0.500003
C49	C	0.134161	1.728111	-0.000019
C50	C	0.634161	2.228111	0.499981
C51	C	0.136949	1.867835	-0.000015
C52	C	0.636949	2.367835	0.499985
N53	N	0.155740	1.479386	-0.265538
N54	N	0.655740	1.979386	0.234462
C55	C	0.168441	1.463898	-0.474580
C56	C	0.668441	1.963898	0.025420
C57	C	0.110706	1.534345	-0.525461
C58	C	0.610706	2.034345	-0.025461
C59	C	0.117773	1.525727	-0.641779
C60	C	0.617773	2.025727	-0.141779
C61	C	0.161375	1.472514	-0.358251
C62	C	0.661375	1.972514	0.141749
N63	N	0.123404	1.518860	0.265504
N64	N	0.623404	2.018860	0.765504
H65	H	0.293795	0.870405	-0.000009
H66	H	0.793795	1.370405	0.499991
H67	H	-0.357103	1.647332	0.000055
H68	H	0.142897	2.147332	0.500055
Br69	Br	0.346130	1.141324	0.000016
Br70	Br	0.846130	1.641324	0.500016
Br71	Br	0.019880	1.646232	-0.452470
Br72	Br	0.519880	2.146232	0.047530
Br73	Br	-0.384964	1.285849	-0.000001
Br74	Br	0.115036	1.785849	0.499999
Br75	Br	-0.060793	1.166354	-0.000019
Br76	Br	0.439207	1.666354	0.499981
H77	H	-0.019419	0.889660	-0.000015
H78	H	0.480581	1.389660	0.499985
H79	H	0.223173	1.397119	-0.518371
H80	H	0.723173	1.897119	-0.018371
