data_functionalizedCrystal
_audit_creation_method	'MofGen! by Chris Wilmer'
_symmetry_space_group_name_H-M	'P1'
_symmetry_Int_Tables_number	1
_symmetry_cell_setting	triclinic
loop_
_symmetry_equiv_pos_as_xyz
  x,y,z
_cell_length_a	12.645323
_cell_length_b	19.077253
_cell_length_c	19.077068
_cell_angle_alpha	90.058363
_cell_angle_beta	87.733562
_cell_angle_gamma	92.281633
loop_
_atom_site_label
_atom_site_type_symbol
_atom_site_fract_x
_atom_site_fract_y
_atom_site_fract_z
Zn1	Zn	-0.554404	1.062979	0.322817
Zn2	Zn	-0.384521	1.058160	0.440329
Zn3	Zn	-0.383997	0.945468	0.318132
Zn4	Zn	-0.568577	0.940718	0.435577
O5	O	-0.472875	1.001831	0.379214
O6	O	-0.526157	1.160668	0.342356
O7	O	-0.236108	1.043182	0.424148
O8	O	-0.400450	0.965061	0.220423
O9	O	-0.401345	1.157127	0.428691
O10	O	-0.525648	1.051396	0.223865
O11	O	-0.235722	0.960388	0.334369
O12	O	-0.414193	0.846510	0.329761
O13	O	-0.715041	0.956965	0.420591
O14	O	-0.549804	0.843020	0.416047
O15	O	-0.704628	1.046790	0.337747
O16	O	-0.415088	1.038576	0.538029
O17	O	-0.550312	0.952292	0.534537
C18	C	-0.483480	0.819270	0.371880
C19	C	-0.488044	0.741168	0.368760
C20	C	-0.484317	0.994415	0.561780
C21	C	-0.489244	0.991306	0.639885
C22	C	-0.749374	1.001885	0.379161
C23	C	-0.867201	1.001908	0.379139
C24	C	-1.041310	0.945242	0.430994
C25	C	-0.918758	0.945374	0.431267
C26	C	-0.908668	1.075135	0.402204
C27	C	-1.031305	1.074822	0.402531
C28	C	-1.030827	0.986060	0.303945
C29	C	-0.908345	0.984390	0.304325
C30	C	-0.197446	1.001820	0.379217
C31	C	-0.079599	1.001941	0.379046
C32	C	-0.462228	1.185106	0.386576
C33	C	-0.457691	1.263207	0.389714
C34	C	-0.520540	1.301743	0.346240
C35	C	-0.516283	1.375126	0.349198
C36	C	-0.449170	1.409972	0.395625
C37	C	-0.386319	1.371431	0.439104
C38	C	-0.390582	1.298048	0.436150
C39	C	-0.429456	1.629244	0.409284
C40	C	-0.425195	1.702632	0.412233
C41	C	-0.555161	1.706322	0.322328
C42	C	-0.559414	1.632939	0.319375
C43	C	-0.496566	1.594403	0.362856
N44	N	-0.444814	1.484982	0.398648
N45	N	-0.500929	1.519395	0.359836
C46	C	-0.461410	1.009296	0.195935
C47	C	-0.456524	1.012477	0.117833
C48	C	-0.421208	1.034804	0.678376
C49	C	-0.425848	1.031884	0.751764
C50	C	-0.498519	0.985463	0.786660
C51	C	-0.566562	0.941963	0.748165
C52	C	-0.561926	0.944887	0.674778
C53	C	-0.519931	0.971901	1.005951
C54	C	-0.524560	0.968979	1.079343
C55	C	-0.383847	1.058902	1.082936
C56	C	-0.379213	1.061818	1.009548
C57	C	-0.447260	1.018321	0.971059
N58	N	-0.503261	0.982476	0.861675
N59	N	-0.442522	1.021312	0.896046
H60	H	-1.073210	0.890681	0.416331
H61	H	-0.370445	1.067304	0.783099
H62	H	-0.872915	1.022908	0.263337
O63	O	-1.072488	1.093108	0.475372
H64	H	-1.118302	1.141430	0.473080
H65	H	-0.320039	1.099618	0.981137
H66	H	-0.617329	0.909467	0.643440
H67	H	-0.339406	1.266673	0.471552
O68	O	-0.342831	1.084876	0.640738
H69	H	-0.296311	1.114637	0.679835
H70	H	-0.328448	1.094315	1.114282
O71	O	-0.593317	0.924973	0.964455
H72	H	-0.643371	0.957727	0.932233
H73	H	-0.625737	0.904169	0.776584
O74	O	-0.882061	0.873332	0.411671
H75	H	-0.951889	0.838082	0.401920
O76	O	-1.085773	0.958633	0.504194
H77	H	-1.135014	1.005500	0.503741
H78	H	-0.606328	1.737706	0.286929
O79	O	-0.883537	0.958847	0.504949
H80	H	-0.954070	0.965316	0.540520
O81	O	-0.602951	0.918914	1.116986
H82	H	-0.649498	0.889164	1.077894
H83	H	-1.056170	1.118339	0.366499
O84	O	-0.592928	1.264167	0.296160
H85	H	-0.545186	1.232190	0.259068
O86	O	-0.863673	1.132430	0.353859
H87	H	-0.811150	1.109266	0.312782
H88	H	-1.063673	0.933750	0.283500
O89	O	-0.871247	1.093829	0.474306
H90	H	-0.823129	1.051085	0.493832
H91	H	-1.054997	1.027393	0.265206
O92	O	-0.872731	0.913036	0.281340
H93	H	-0.825918	0.890139	0.323020
H94	H	-0.614068	1.604572	0.281571
O95	O	-0.584053	1.416694	0.302299
H96	H	-0.631422	1.380135	0.269509
O97	O	-0.352799	1.740214	0.462311
H98	H	-0.360383	1.797716	0.457050
H99	H	-0.378278	1.597877	0.444687
O100	O	-0.313923	1.409009	0.489177
H101	H	-0.321505	1.466512	0.483922
