data_functionalizedCrystal
_audit_creation_method	'MofGen! by Chris Wilmer'
_symmetry_space_group_name_H-M	'P1'
_symmetry_Int_Tables_number	1
_symmetry_cell_setting	triclinic
loop_
_symmetry_equiv_pos_as_xyz
  x,y,z
_cell_length_a	19.121147
_cell_length_b	12.827892
_cell_length_c	12.827885
_cell_angle_alpha	90.031912
_cell_angle_beta	92.461506
_cell_angle_gamma	87.578819
loop_
_atom_site_label
_atom_site_type_symbol
_atom_site_fract_x
_atom_site_fract_y
_atom_site_fract_z
Zn1	Zn	-1.073739	0.484258	-0.658991
Zn2	Zn	-0.573739	0.984258	-0.158991
Zn3	Zn	-1.073647	0.659030	-0.484239
Zn4	Zn	-0.573647	1.159030	0.015761
Zn5	Zn	-0.956284	0.476841	-0.476809
Zn6	Zn	-0.456284	0.976841	0.023191
Zn7	Zn	-0.956255	0.651488	-0.651488
Zn8	Zn	-0.456255	1.151488	-0.151488
O9	O	-1.014981	0.567904	-0.567882
O10	O	-0.514981	1.067904	-0.067882
O11	O	-1.172011	0.513703	-0.642060
O12	O	-0.672011	1.013703	-0.142060
O13	O	-1.058053	0.634914	-0.337016
O14	O	-0.558053	1.134914	0.162984
O15	O	-0.971915	0.331592	-0.501007
O16	O	-0.471915	0.831592	-0.001007
O17	O	-1.171944	0.642107	-0.513670
O18	O	-0.671944	1.142107	-0.013670
O19	O	-1.058209	0.337041	-0.634855
O20	O	-0.558209	0.837041	-0.134855
O21	O	-0.971827	0.501061	-0.331557
O22	O	-0.471827	1.001061	0.168443
O23	O	-0.857996	0.493747	-0.493731
O24	O	-0.357996	0.993747	0.006269
O25	O	-0.971865	0.629252	-0.798721
O26	O	-0.471865	1.129252	-0.298721
O27	O	-0.857974	0.622059	-0.622066
O28	O	-0.357974	1.122059	-0.122066
O29	O	-1.058180	0.506389	-0.804234
O30	O	-0.558180	1.006389	-0.304234
O31	O	-1.058024	0.804262	-0.506394
O32	O	-0.558024	1.304262	-0.006394
O33	O	-0.971777	0.798721	-0.629271
O34	O	-0.471777	1.298721	-0.129271
C35	C	-0.832501	0.556281	-0.556279
C36	C	-0.332501	1.056281	-0.056279
C37	C	-0.754435	0.551333	-0.551339
C38	C	-0.254435	1.051333	-0.051339
C39	C	-0.312910	0.519947	-0.520059
C40	C	0.187090	1.019947	-0.020059
C41	C	-0.386261	0.524601	-0.524705
C42	C	0.113739	1.024601	-0.024705
C43	C	-0.422941	0.593844	-0.593737
C44	C	0.077059	1.093844	-0.093737
C45	C	-0.386267	0.658428	-0.658135
C46	C	0.113733	1.158428	-0.158135
C47	C	-0.312917	0.653768	-0.653493
C48	C	0.187083	1.153768	-0.153493
C49	C	-0.644411	0.611258	-0.611095
C50	C	-0.144411	1.111258	-0.111095
C51	C	-0.717766	0.615915	-0.615730
C52	C	-0.217766	1.115915	-0.115730
C53	C	-0.717755	0.482086	-0.482301
C54	C	-0.217755	0.982086	0.017699
C55	C	-0.644404	0.477436	-0.477661
C56	C	-0.144404	0.977436	0.022339
C57	C	-0.607735	0.542017	-0.542062
C58	C	-0.107735	1.042017	-0.042062
C59	C	-0.497918	0.598605	-0.598486
C60	C	0.002082	1.098605	-0.098486
C61	C	-0.532760	0.537250	-0.537318
C62	C	-0.032760	1.037250	-0.037318
C63	C	-1.014906	0.839409	-0.567849
C64	C	-0.514906	1.339409	-0.067849
C65	C	-1.014939	0.955564	-0.567873
C66	C	-0.514939	1.455564	-0.067873
C67	C	-0.198174	0.579569	-0.579519
C68	C	0.301826	1.079569	-0.079519
C69	C	-0.276240	0.584529	-0.584449
C70	C	0.223760	1.084529	-0.084449
C71	C	-1.057614	1.009961	-0.634160
C72	C	-0.557614	1.509961	-0.134160
C73	C	-1.057649	1.130013	-0.634187
C74	C	-0.557649	1.630013	-0.134187
C75	C	-1.015030	0.567807	-0.840455
C76	C	-0.515030	1.067807	-0.340455
C77	C	-1.015050	0.567765	-0.956610
C78	C	-0.515050	1.067765	-0.456610
C79	C	-1.015047	1.295338	-0.567929
C80	C	-0.515047	1.795338	-0.067929
C81	C	-1.015002	1.179182	-0.567923
C82	C	-0.515002	1.679182	-0.067923
C83	C	-0.972397	0.501519	-1.005694
C84	C	-0.472397	1.001519	-0.505694
C85	C	-0.972417	0.501474	-1.125746
C86	C	-0.472417	1.001474	-0.625746
C87	C	-1.014974	0.567928	-0.296371
C88	C	-0.514974	1.067928	0.203629
C89	C	-1.015089	0.567684	-0.180226
C90	C	-0.515089	1.067684	0.319774
H91	H	-0.416138	0.714803	-0.714347
H92	H	0.083862	1.214803	-0.214347
H93	H	-0.283050	0.463563	-0.463844
H94	H	0.216950	0.963563	0.036156
F95	F	-0.967211	1.010858	-0.493726
F96	F	-0.467211	1.510858	0.006274
H97	H	-0.935861	0.444840	-0.958839
H98	H	-0.435861	0.944840	-0.458839
H99	H	-0.283061	0.706355	-0.705929
H100	H	0.216939	1.206355	-0.205929
H101	H	-1.051582	0.624450	-1.003465
H102	H	-0.551582	1.124450	-0.503465
F103	F	-0.924688	0.427334	-1.180929
F104	F	-0.424688	0.927334	-0.680929
H105	H	-0.978466	1.132420	-0.511166
H106	H	-0.478466	1.632420	-0.011166
H107	H	-1.051611	0.624399	-1.138011
H108	H	-0.551611	1.124399	-0.638011
F109	F	-0.425284	0.455857	-0.456178
F110	F	0.074716	0.955857	0.043822
F111	F	-0.605371	0.403734	-0.404193
F112	F	-0.105371	0.903734	0.095807
F113	F	-1.105332	0.954667	-0.708322
F114	F	-0.605332	1.454667	-0.208322
H115	H	-0.614564	0.663848	-0.663531
H116	H	-0.114564	1.163848	-0.163531
H117	H	-0.747618	0.429507	-0.429871
H118	H	-0.247618	0.929507	0.070129
H119	H	-1.094188	1.176783	-0.690933
H120	H	-0.594188	1.676783	-0.190933
F121	F	-0.756802	0.689617	-0.689206
F122	F	-0.256802	1.189617	-0.189206
F123	F	-0.536962	0.672311	-0.671939
F124	F	-0.036962	1.172311	-0.171939
F125	F	-0.493721	0.463555	-0.463856
F126	F	0.006279	0.963555	0.036144
