data_functionalizedCrystal
_audit_creation_method	'MofGen! by Chris Wilmer'
_symmetry_space_group_name_H-M	'P1'
_symmetry_Int_Tables_number	1
_symmetry_cell_setting	triclinic
loop_
_symmetry_equiv_pos_as_xyz
  x,y,z
_cell_length_a	19.077212
_cell_length_b	16.959453
_cell_length_c	19.076919
_cell_angle_alpha	87.728832
_cell_angle_beta	90.114942
_cell_angle_gamma	92.312080
loop_
_atom_site_label
_atom_site_type_symbol
_atom_site_fract_x
_atom_site_fract_y
_atom_site_fract_z
Zn1	Zn	1.058312	-0.286943	0.440582
Zn2	Zn	1.558312	0.213057	0.940582
Zn3	Zn	1.062961	-0.413615	0.323075
Zn4	Zn	1.562961	0.086385	0.823075
Zn5	Zn	0.945528	-0.286527	0.318358
Zn6	Zn	1.445528	0.213473	0.818358
Zn7	Zn	0.940781	-0.424158	0.435808
Zn8	Zn	1.440781	0.075842	0.935808
O9	O	1.001895	-0.352811	0.379456
O10	O	1.501895	0.147189	0.879456
O11	O	1.157262	-0.299508	0.428967
O12	O	1.657262	0.200492	0.928967
O13	O	1.051315	-0.392170	0.224119
O14	O	1.551315	0.107830	0.724119
O15	O	0.960530	-0.175971	0.334595
O16	O	1.460530	0.324029	0.834595
O17	O	1.160678	-0.392573	0.342635
O18	O	1.660678	0.107427	0.842635
O19	O	1.043392	-0.176276	0.424393
O20	O	1.543392	0.323724	0.924393
O21	O	0.965038	-0.298799	0.220653
O22	O	1.465038	0.201201	0.720653
O23	O	0.846564	-0.309022	0.329966
O24	O	1.346564	0.190978	0.829966
O25	O	0.952440	-0.410543	0.534772
O26	O	1.452440	0.089457	1.034772
O27	O	0.843077	-0.410139	0.416256
O28	O	1.343077	0.089861	0.916256
O29	O	1.038789	-0.309732	0.538280
O30	O	1.538789	0.190268	1.038280
O31	O	1.046713	-0.525625	0.338006
O32	O	1.546713	-0.025625	0.838006
O33	O	0.956947	-0.533371	0.420830
O34	O	1.456947	-0.033371	0.920830
C35	C	0.819324	-0.360681	0.372081
C36	C	1.319324	0.139319	0.872081
C37	C	0.741218	-0.364067	0.368943
C38	C	1.241218	0.135933	0.868943
C39	C	0.301757	-0.388323	0.346468
C40	C	0.801757	0.111677	0.846468
C41	C	0.375145	-0.385137	0.349412
C42	C	0.875145	0.114863	0.849412
C43	C	0.410061	-0.335176	0.395905
C44	C	0.910061	0.164824	0.895905
C45	C	0.371583	-0.288392	0.439453
C46	C	0.871583	0.211608	0.939453
C47	C	0.298196	-0.291575	0.436506
C48	C	0.798196	0.208425	0.936506
C49	C	0.629354	-0.320466	0.409544
C50	C	1.129354	0.179534	0.909544
C51	C	0.702746	-0.317289	0.412489
C52	C	1.202746	0.182711	0.912489
C53	C	0.706303	-0.414033	0.322447
C54	C	1.206303	0.085967	0.822447
C55	C	0.632915	-0.417215	0.319507
C56	C	1.132915	0.082785	0.819507
C57	C	0.594444	-0.370428	0.363052
C58	C	1.094444	0.129572	0.863052
N59	N	0.485075	-0.331919	0.398916
N60	N	0.985075	0.168081	0.898916
N61	N	0.519431	-0.373681	0.360037
N62	N	1.019431	0.126319	0.860037
C63	C	1.001838	-0.558179	0.379428
C64	C	1.501838	-0.058179	0.879428
C65	C	1.001877	-0.646034	0.379442
C66	C	1.501877	-0.146034	0.879442
C67	C	1.045096	-1.017612	0.426301
C68	C	1.545096	-0.517612	0.926301
C69	C	0.958887	-1.017404	0.332723
C70	C	1.458887	-0.517404	0.832723
C71	C	0.958862	-0.934858	0.332706
C72	C	1.458862	-0.434858	0.832706
C73	C	1.001953	-0.893686	0.379488
C74	C	1.501953	-0.393686	0.879488
C75	C	1.045070	-0.935058	0.426286
C76	C	1.545070	-0.435058	0.926286
C77	C	0.915740	-0.893479	0.285913
C78	C	1.415740	-0.393479	0.785913
C79	C	0.915712	-0.810929	0.285895
C80	C	1.415712	-0.310929	0.785895
C81	C	0.958808	-0.769754	0.332673
C82	C	1.458808	-0.269754	0.832673
C83	C	1.001928	-0.811133	0.379473
C84	C	1.501928	-0.311133	0.879473
C85	C	1.045019	-0.769960	0.426255
C86	C	1.545019	-0.269960	0.926255
C87	C	1.088143	-0.811336	0.473052
C88	C	1.588143	-0.311336	0.973052
C89	C	1.088166	-0.893884	0.473065
C90	C	1.588166	-0.393884	0.973065
C91	C	0.958785	-0.687207	0.332660
C92	C	1.458785	-0.187207	0.832660
C93	C	1.044994	-0.687407	0.426241
C94	C	1.544994	-0.187407	0.926241
C95	C	1.185180	-0.344911	0.386860
C96	C	1.685180	0.155089	0.886860
C97	C	1.263285	-0.341545	0.390015
C98	C	1.763285	0.158455	0.890015
C99	C	0.994566	-0.361360	0.562735
C100	C	1.494566	0.138640	1.062735
C101	C	0.991443	-0.365003	0.640837
C102	C	1.491443	0.134997	1.140837
C103	C	1.001972	-0.146641	0.379500
C104	C	1.501972	0.353359	0.879500
C105	C	1.002004	-0.058784	0.379519
C106	C	1.502004	0.441216	0.879519
C107	C	1.009236	-0.344236	0.196892
C108	C	1.509236	0.155764	0.696892
C109	C	1.012496	-0.340365	0.118795
C110	C	1.512496	0.159635	0.618795
C111	C	1.034931	-0.314230	0.679357
C112	C	1.534931	0.185770	1.179357
C113	C	1.031988	-0.317650	0.752743
C114	C	1.531988	0.182350	1.252743
C115	C	0.985560	-0.371848	0.787607
C116	C	1.485560	0.128152	1.287607
C117	C	0.942067	-0.422623	0.749082
C118	C	1.442067	0.077377	1.249082
C119	C	0.945007	-0.419199	0.675697
C120	C	1.445007	0.080801	1.175697
C121	C	0.971943	-0.387715	1.006886
C122	C	1.471943	0.112285	1.506886
C123	C	0.969008	-0.391138	1.080275
C124	C	1.469008	0.108862	1.580275
C125	C	1.058928	-0.286163	1.083931
C126	C	1.558928	0.213837	1.583931
C127	C	1.061867	-0.282747	1.010545
C128	C	1.561867	0.217253	1.510545
C129	C	1.018372	-0.333519	0.972027
C130	C	1.518372	0.166481	1.472027
N131	N	0.982552	-0.375347	0.862618
N132	N	1.482552	0.124653	1.362618
N133	N	1.021376	-0.330015	0.897016
N134	N	1.521376	0.169985	1.397016
H135	H	0.400017	-0.247709	0.477306
H136	H	0.900017	0.252291	0.977306
N137	N	0.891987	-0.481085	0.786672
N138	N	1.391987	0.018915	1.286672
H139	H	0.842298	-0.470371	0.771868
H140	H	1.342298	0.029629	1.271868
H141	H	0.896778	-0.475533	0.838997
H142	H	1.396778	0.024467	1.338997
N143	N	0.264104	-0.442204	0.296314
N144	N	0.764104	0.057796	0.796314
H145	H	0.211775	-0.437124	0.301053
H146	H	0.711775	0.062876	0.801053
H147	H	0.276490	-0.498626	0.307669
H148	H	0.776490	0.001374	0.807669
N149	N	1.078879	-0.262873	0.794289
N150	N	1.578879	0.237127	1.294289
H151	H	1.108736	-0.228019	0.761068
H152	H	1.608736	0.271981	1.261068
H153	H	1.110168	-0.295054	0.826055
H154	H	1.610168	0.204946	1.326055
N155	N	0.740395	-0.263412	0.462657
N156	N	1.240395	0.236588	0.962657
H157	H	0.769530	-0.295807	0.496391
H158	H	1.269530	0.204193	0.996391
H159	H	0.704836	-0.234280	0.489745
H160	H	1.204836	0.265720	0.989745
N161	N	0.595257	-0.471096	0.269357
N162	N	1.095257	0.028904	0.769357
H163	H	0.607589	-0.527544	0.280688
H164	H	1.107589	-0.027544	0.780688
H165	H	0.610041	-0.455765	0.219704
H166	H	1.110041	0.044235	0.719704
N167	N	0.587867	-0.269992	0.456497
N168	N	1.087867	0.230008	0.956497
H169	H	0.621123	-0.237859	0.486394
H170	H	1.121123	0.262141	0.986394
H171	H	0.556113	-0.305045	0.487745
H172	H	1.056113	0.194955	0.987745
H173	H	1.080087	-0.653889	0.464334
H174	H	1.580087	-0.153889	0.964334
H175	H	0.406466	-0.423227	0.313951
H176	H	0.906466	0.076773	0.813951
H177	H	0.923671	-0.653522	0.294562
H178	H	1.423671	-0.153522	0.794562
H179	H	0.909588	-0.460536	0.644335
H180	H	1.409588	0.039464	1.144335
N181	N	0.925009	-0.442450	0.965345
N182	N	1.425009	0.057550	1.465345
H183	H	0.895147	-0.477295	0.998568
H184	H	1.395147	0.022705	1.498568
H185	H	0.954793	-0.476387	0.936030
H186	H	1.454793	0.023613	1.436030
H187	H	0.737634	-0.452123	0.286994
H188	H	1.237634	0.047877	0.786994
N189	N	0.918906	-0.449585	1.117863
N190	N	1.418906	0.050415	1.617863
H191	H	0.885140	-0.420272	1.146995
H192	H	1.385140	0.079728	1.646995
H193	H	0.946260	-0.486407	1.149423
H194	H	1.446260	0.013593	1.649423
H195	H	1.094339	-0.244826	1.115301
H196	H	1.594339	0.255174	1.615301
H197	H	0.266873	-0.253480	0.471963
H198	H	0.766873	0.246520	0.971963
H199	H	1.123275	-0.927580	0.511165
H200	H	1.623275	-0.427580	1.011165
N201	N	1.134612	-0.766927	0.523515
N202	N	1.634612	-0.266927	1.023515
H203	H	1.128046	-0.708356	0.516405
H204	H	1.628046	-0.208356	1.016405
H205	H	1.185250	-0.778635	0.514652
H206	H	1.685250	-0.278635	1.014652
N207	N	1.091610	-1.062231	0.476770
N208	N	1.591610	-0.562231	0.976770
H209	H	1.085092	-1.120773	0.469682
H210	H	1.585092	-0.620773	0.969682
H211	H	1.078621	-1.050603	0.526500
H212	H	1.578621	-0.550603	1.026500
N213	N	0.912414	-1.061806	0.282266
N214	N	1.412414	-0.561806	0.782266
H215	H	0.918974	-1.120378	0.289376
H216	H	1.418974	-0.620378	0.789376
H217	H	0.925402	-1.044575	0.232534
H218	H	1.425402	-0.544575	0.732534
N219	N	0.869271	-0.937883	0.235454
N220	N	1.369271	-0.437883	0.735454
H221	H	0.875838	-0.996455	0.242559
H222	H	1.375838	-0.496455	0.742559
H223	H	0.882258	-0.920646	0.185722
H224	H	1.382258	-0.420646	0.685722
N225	N	0.869214	-0.766302	0.235416
N226	N	1.369214	-0.266302	0.735416
H227	H	0.835474	-0.734800	0.262617
H228	H	1.335474	-0.234800	0.762617
H229	H	0.841967	-0.804959	0.205793
H230	H	1.341967	-0.304959	0.705793
H231	H	1.072740	-0.270098	0.650977
H232	H	1.572740	0.229902	1.150977
H233	H	1.099676	-0.238615	0.982164
H234	H	1.599676	0.261385	1.482164
