data_functionalizedCrystal
_audit_creation_method	'MofGen! by Chris Wilmer'
_symmetry_space_group_name_H-M	'P1'
_symmetry_Int_Tables_number	1
_symmetry_cell_setting	triclinic
loop_
_symmetry_equiv_pos_as_xyz
  x,y,z
_cell_length_a	17.038272
_cell_length_b	10.540539
_cell_length_c	9.016244
_cell_angle_alpha	90.005301
_cell_angle_beta	89.997742
_cell_angle_gamma	92.181476
loop_
_atom_site_label
_atom_site_type_symbol
_atom_site_fract_x
_atom_site_fract_y
_atom_site_fract_z
O1	O	0.110247	-1.696177	-0.123272
O2	O	0.120634	-1.327733	-0.123290
O3	O	0.001613	-1.509765	-0.123269
O4	O	0.229268	-1.514144	-0.123293
O5	O	0.001615	-1.509737	0.123411
O6	O	0.120637	-1.327704	0.123390
O7	O	0.110249	-1.696149	0.123409
Cu8	Cu	0.115443	-1.511924	0.145924
Cu9	Cu	0.115440	-1.511957	-0.145805
O10	O	0.229271	-1.514116	0.123388
C11	C	0.119857	-1.280343	0.000048
C12	C	0.117526	-1.139177	0.000041
C13	C	-0.027537	-1.505768	0.000071
C14	C	-0.114398	-1.493883	0.000070
N15	N	0.115445	-1.511910	0.351110
C16	C	-0.163886	-1.602994	0.000077
C17	C	-0.245501	-1.591820	0.000062
C18	C	-0.277626	-1.471534	0.000051
C19	C	-0.228133	-1.362416	0.000039
C20	C	-0.146519	-1.373591	0.000044
C21	C	-0.523611	-1.432055	0.000029
C22	C	-0.605231	-1.420888	0.000029
C23	C	-0.622593	-1.650293	0.000049
C24	C	-0.540977	-1.661457	0.000062
C25	C	-0.491491	-1.552339	0.000042
C26	C	-0.361050	-1.460110	0.000041
C27	C	-0.408069	-1.563764	0.000042
C28	C	0.258421	-1.518114	0.000045
C29	C	0.345282	-1.529998	0.000036
C30	C	0.111027	-1.743538	0.000068
C31	C	0.113358	-1.884704	0.000065
C32	C	0.028219	-0.947420	0.000626
C33	C	0.030581	-1.094259	0.000055
C34	C	0.159366	-1.081424	-0.140824
C35	C	0.156399	-0.934603	-0.140927
C36	C	0.158170	-0.934247	0.139595
C37	C	0.158971	-1.081304	0.141442
N38	N	0.115432	-1.511981	-0.350991
C39	C	0.178900	-1.414197	0.586131
C40	C	0.179138	-1.414449	0.414240
C41	C	0.134015	-1.646365	0.413453
C42	C	0.134465	-1.645841	0.585397
C43	C	0.033212	-1.476465	0.585660
C44	C	0.033745	-1.473470	0.413706
H45	H	-0.137736	-1.700943	0.000095
H46	H	-0.002340	-1.133790	0.101034
H47	H	-0.662893	-1.739130	0.000062
H48	H	-0.514827	-1.759406	0.000071
C49	C	0.240864	-0.877674	-0.149612
H50	H	0.276838	-0.944297	-0.153072
H51	H	0.251373	-0.826472	-0.064675
H52	H	0.246493	-0.827149	-0.236484
C53	C	-0.033126	-1.562514	0.355682
H54	H	-0.011998	-1.624582	0.292246
H55	H	-0.069691	-1.514518	0.302005
H56	H	-0.058933	-1.603409	0.437015
H57	H	-0.285790	-1.680669	0.000071
H58	H	-0.387215	-1.362173	0.000035
C59	C	0.009345	-1.346235	0.644290
H60	H	-0.040428	-1.326612	0.604734
H61	H	0.047400	-1.282989	0.614853
H62	H	0.006333	-1.348768	0.749466
H63	H	-0.006128	-0.915619	0.101649
H64	H	-0.005985	-0.914034	-0.099827
H65	H	-0.002574	-1.132923	-0.101092
H66	H	0.193323	-1.676795	0.370370
C67	C	0.215501	-1.686283	0.639556
H68	H	0.247838	-1.702872	0.556473
H69	H	0.209329	-1.760857	0.698209
H70	H	0.239337	-1.620049	0.697377
H71	H	0.019669	-1.374519	0.372961
H72	H	0.125473	-0.903520	-0.246219
C73	C	0.245618	-1.119672	-0.147931
H74	H	0.256905	-1.171331	-0.064857
H75	H	0.279106	-1.045537	-0.146623
H76	H	0.254052	-1.165772	-0.236695
H77	H	0.130299	-1.121313	-0.245654
C78	C	0.120164	-0.888073	0.283840
H79	H	0.076604	-0.838145	0.260312
H80	H	0.157614	-0.838336	0.338833
H81	H	0.102806	-0.959259	0.341350
C82	C	0.074445	-1.747696	0.641592
H83	H	0.049901	-1.789220	0.559331
H84	H	0.035805	-1.708629	0.700153
H85	H	0.100609	-1.808097	0.699938
C86	C	0.117680	-1.132760	0.282227
H87	H	0.075362	-1.189283	0.254962
H88	H	0.098093	-1.064095	0.337554
H89	H	0.154115	-1.176679	0.341007
H90	H	0.222360	-1.111442	0.149940
C91	C	-0.030607	-1.572643	0.640598
H92	H	-0.007301	-1.634147	0.701845
H93	H	-0.055065	-1.613632	0.557912
H94	H	-0.068818	-1.529484	0.695965
H95	H	0.167964	-1.314790	0.372092
C96	C	0.261541	-1.446322	0.358636
H97	H	0.294999	-1.459179	0.441135
H98	H	0.282402	-1.378077	0.300159
H99	H	0.258060	-1.521400	0.300329
C100	C	-0.640571	-1.288571	0.000017
H101	H	-0.696265	-1.297548	0.000037
H102	H	-0.623632	-1.243281	-0.086010
H103	H	-0.623629	-1.243264	0.086047
C104	C	-0.469186	-1.312029	0.000034
H105	H	-0.500011	-1.238794	0.000047
H106	H	-0.436983	-1.311617	-0.085985
H107	H	-0.436994	-1.311614	0.086072
H108	H	0.220970	-0.892878	0.140540
H109	H	-0.254296	-1.264477	0.000021
C110	C	-0.092083	-1.253570	0.000040
H111	H	-0.122904	-1.180331	0.000045
H112	H	-0.059883	-1.253173	-0.085983
H113	H	-0.059888	-1.253150	0.086074
H114	H	-0.381909	-1.661700	0.000018
H115	H	0.167898	-1.314246	0.627521
H116	H	0.089051	-1.721226	0.372556
C117	C	0.260842	-1.445705	0.644459
H118	H	0.256542	-1.518195	0.706959
H119	H	0.282217	-1.375556	0.699196
H120	H	0.294316	-1.462829	0.563194
