data_functionalizedCrystal
_audit_creation_method	'MofGen! by Chris Wilmer'
_symmetry_space_group_name_H-M	'P1'
_symmetry_Int_Tables_number	1
_symmetry_cell_setting	triclinic
loop_
_symmetry_equiv_pos_as_xyz
  x,y,z
_cell_length_a	21.395364
_cell_length_b	21.395361
_cell_length_c	21.395355
_cell_angle_alpha	90.021511
_cell_angle_beta	90.025298
_cell_angle_gamma	90.047409
loop_
_atom_site_label
_atom_site_type_symbol
_atom_site_fract_x
_atom_site_fract_y
_atom_site_fract_z
Zn1	Zn	-0.957859	0.249232	-0.354261
Zn2	Zn	-0.457859	0.749232	0.145739
Zn3	Zn	-0.957762	0.353992	-0.249478
Zn4	Zn	-0.457762	0.853992	0.250522
Zn5	Zn	-0.853074	0.249263	-0.249496
Zn6	Zn	-0.353074	0.749263	0.250504
Zn7	Zn	-0.853043	0.354006	-0.354217
Zn8	Zn	-0.353043	0.854006	0.145783
O9	O	-0.905435	0.301623	-0.301863
O10	O	-0.405435	0.801623	0.198137
O11	O	-1.045524	0.263110	-0.340372
O12	O	-0.545524	0.763110	0.159628
O13	O	-0.943847	0.340106	-0.161802
O14	O	-0.443847	0.840106	0.338198
O15	O	-0.867028	0.161581	-0.263420
O16	O	-0.367028	0.661581	0.236580
O17	O	-1.045453	0.340076	-0.263388
O18	O	-0.545453	0.840076	0.236612
O19	O	-0.944013	0.161558	-0.340390
O20	O	-0.444013	0.661558	0.159610
O21	O	-0.866933	0.263162	-0.161816
O22	O	-0.366933	0.763162	0.338184
O23	O	-0.765392	0.263176	-0.263377
O24	O	-0.265392	0.763176	0.236623
O25	O	-0.866975	0.340101	-0.441901
O26	O	-0.366975	0.840101	0.058099
O27	O	-0.765370	0.340131	-0.340315
O28	O	-0.265370	0.840131	0.159685
O29	O	-0.943983	0.263124	-0.441933
O30	O	-0.443983	0.763124	0.058067
O31	O	-0.943817	0.441672	-0.263346
O32	O	-0.443817	0.941672	0.236654
O33	O	-0.866881	0.441682	-0.340297
O34	O	-0.366881	0.941682	0.159703
C35	C	-0.742647	0.301659	-0.301843
C36	C	-0.242647	0.801659	0.198157
C37	C	-0.673006	0.301689	-0.301850
C38	C	-0.173006	0.801689	0.198150
C39	C	-0.640352	0.261679	-0.341997
C40	C	-0.140352	0.761679	0.158003
C41	C	-0.574917	0.261664	-0.341998
C42	C	-0.074917	0.761664	0.158002
C43	C	-0.542137	0.301671	-0.301859
C44	C	-0.042137	0.801671	0.198141
C45	C	-0.574799	0.341683	-0.261705
C46	C	-0.074799	0.841683	0.238295
C47	C	-0.640233	0.341692	-0.261700
C48	C	-0.140233	0.841692	0.238300
C49	C	-0.438413	0.358099	-0.296818
C50	C	0.061587	0.858099	0.203182
C51	C	-0.372980	0.358090	-0.296827
C52	C	0.127020	0.858090	0.203173
C53	C	-0.340317	0.301642	-0.301871
C54	C	0.159683	0.801642	0.198129
C55	C	-0.373094	0.245200	-0.306919
C56	C	0.126906	0.745200	0.193081
C57	C	-0.438528	0.245210	-0.306914
C58	C	0.061472	0.745210	0.193086
C59	C	-0.471185	0.301665	-0.301860
C60	C	0.028815	0.801665	0.198140
C61	C	-0.236711	0.261613	-0.342021
C62	C	0.263289	0.761613	0.157979
C63	C	-0.171274	0.261597	-0.342019
C64	C	0.328726	0.761597	0.157981
C65	C	-0.171157	0.341622	-0.261728
C66	C	0.328843	0.841622	0.238272
C67	C	-0.236593	0.341632	-0.261728
C68	C	0.263407	0.841632	0.238272
C69	C	-0.269365	0.301629	-0.301878
C70	C	0.230635	0.801629	0.198122
C71	C	-0.905352	0.464411	-0.301828
C72	C	-0.405352	0.964411	0.198172
C73	C	-0.905374	0.534052	-0.301834
C74	C	-0.405374	1.034052	0.198166
C75	C	-0.905487	0.301610	-0.465286
C76	C	-0.405487	0.801610	0.034714
C77	C	-0.905509	0.301605	-0.534928
C78	C	-0.405509	0.801605	-0.034928
C79	C	-0.068858	0.301596	-0.301880
C80	C	0.431142	0.801596	0.198120
C81	C	-0.138499	0.301604	-0.301879
C82	C	0.361501	0.801604	0.198121
C83	C	-0.905535	0.138200	-0.301912
C84	C	-0.405535	0.638200	0.198088
C85	C	-0.905577	0.068558	-0.301932
C86	C	-0.405577	0.568558	0.198068
C87	C	-0.945470	0.566739	-0.261807
C88	C	-0.445470	1.066739	0.238193
C89	C	-0.945499	0.632174	-0.261821
C90	C	-0.445499	1.132174	0.238179
C91	C	-0.905421	0.664920	-0.301856
C92	C	-0.405421	1.164920	0.198144
C93	C	-0.865322	0.632226	-0.341891
C94	C	-0.365322	1.132226	0.158109
C95	C	-0.865298	0.566791	-0.341880
C96	C	-0.365298	1.066791	0.158120
C97	C	-0.849006	0.768652	-0.306765
C98	C	-0.349006	1.268652	0.193235
C99	C	-0.849029	0.834085	-0.306771
C100	C	-0.349029	1.334085	0.193229
C101	C	-0.905494	0.866741	-0.301892
C102	C	-0.405494	1.366741	0.198108
C103	C	-0.961938	0.833956	-0.296994
C104	C	-0.461938	1.333956	0.203006
C105	C	-0.961915	0.768522	-0.296983
C106	C	-0.461915	1.268522	0.203017
C107	C	-0.905442	0.735873	-0.301872
C108	C	-0.405442	1.235873	0.198128
C109	C	-0.945625	0.970380	-0.261878
C110	C	-0.445625	1.470380	0.238122
C111	C	-0.945655	1.035817	-0.261896
C112	C	-0.445655	1.535817	0.238104
C113	C	-0.865473	1.035867	-0.341963
C114	C	-0.365473	1.535867	0.158037
C115	C	-0.865448	0.970432	-0.341948
C116	C	-0.365448	1.470432	0.158052
C117	C	-0.905523	0.937692	-0.301902
C118	C	-0.405523	1.437692	0.198098
C119	C	-0.945605	0.261521	-0.567659
C120	C	-0.445605	0.761521	-0.067659
C121	C	-0.945604	0.261494	-0.633094
C122	C	-0.445604	0.761494	-0.133094
C123	C	-0.905514	0.301562	-0.665796
C124	C	-0.405514	0.801562	-0.165796
C125	C	-0.865410	0.341649	-0.633057
C126	C	-0.365410	0.841649	-0.133057
C127	C	-0.865407	0.341670	-0.567623
C128	C	-0.365407	0.841670	-0.067623
C129	C	-0.900538	0.357979	-0.769459
C130	C	-0.400538	0.857979	-0.269459
C131	C	-0.900545	0.357959	-0.834892
C132	C	-0.400545	0.857959	-0.334892
C133	C	-0.905518	0.301496	-0.867617
C134	C	-0.405518	0.801496	-0.367617
C135	C	-0.910497	0.245052	-0.834901
C136	C	-0.410497	0.745052	-0.334901
C137	C	-0.910494	0.245073	-0.769467
C138	C	-0.410494	0.745073	-0.269467
C139	C	-0.905512	0.301543	-0.736748
C140	C	-0.405512	0.801543	-0.236748
C141	C	-0.945615	0.261380	-0.971300
C142	C	-0.445615	0.761380	-0.471300
C143	C	-0.945610	0.261352	-1.036737
C144	C	-0.445610	0.761352	-0.536737
C145	C	-0.865419	0.341512	-1.036699
C146	C	-0.365419	0.841512	-0.536699
C147	C	-0.865421	0.341534	-0.971263
C148	C	-0.365421	0.841534	-0.471263
C149	C	-0.905522	0.301469	-0.938568
C150	C	-0.405522	0.801469	-0.438568
C151	C	-0.905419	0.301591	-0.139075
C152	C	-0.405419	0.801591	0.360925
C153	C	-0.905518	0.301419	-0.069435
C154	C	-0.405518	0.801419	0.430565
H155	H	-0.666819	0.374274	-0.229006
H156	H	-0.166819	0.874274	0.270994
H157	H	-0.978103	0.540084	-0.229201
H158	H	-0.478103	1.040084	0.270799
C159	C	-0.821195	0.530835	-0.385923
C160	C	-0.321195	1.030835	0.114077
N161	N	-0.787979	0.503751	-0.419100
N162	N	-0.287979	1.003751	0.080900
C163	C	-0.336931	0.420177	-0.291267
C164	C	0.163069	0.920177	0.208733
N165	N	-0.309780	0.466941	-0.287075
N166	N	0.190220	0.966941	0.212925
H167	H	-0.978152	0.658793	-0.229226
H168	H	-0.478152	1.158793	0.270774
H169	H	-0.978258	0.228896	-0.541042
H170	H	-0.478258	0.728896	-0.041042
H171	H	-0.548106	0.374256	-0.229023
H172	H	-0.048106	0.874256	0.270977
C173	C	-1.024002	0.732461	-0.291595
C174	C	-0.524002	1.232461	0.208405
N175	N	-1.070767	0.705300	-0.287537
N176	N	-0.570767	1.205300	0.212463
H177	H	-0.803022	0.742070	-0.310740
H178	H	-0.303022	1.242070	0.189260
H179	H	-0.914547	0.199115	-0.742833
H180	H	-0.414547	0.699115	-0.242833
C181	C	-0.821314	0.385633	-0.935258
C182	C	-0.321314	0.885633	-0.435258
N183	N	-0.788088	0.418848	-0.908139
N184	N	-0.288088	0.918848	-0.408139
H185	H	-0.144469	0.374196	-0.229047
H186	H	0.355531	0.874196	0.270953
C187	C	-0.915966	0.182938	-0.870894
C188	C	-0.415966	0.682938	-0.370894
N189	N	-0.920086	0.136155	-0.898007
N190	N	-0.420086	0.636155	-0.398007
C191	C	-0.895067	0.420048	-0.870872
C192	C	-0.395067	0.920048	-0.370872
N193	N	-0.890939	0.466815	-0.897972
N194	N	-0.390939	0.966815	-0.397972
H195	H	-0.978265	0.228753	-0.944679
H196	H	-0.478265	0.728753	-0.444679
C197	C	-0.989719	0.217401	-0.669105
C198	C	-0.489719	0.717401	-0.169105
N199	N	-1.022948	0.184192	-0.696227
N200	N	-0.522948	0.684192	-0.196227
C201	C	-1.024056	0.869873	-0.291632
C202	C	-0.524056	1.369873	0.208368
N203	N	-1.070841	0.896928	-0.287594
N204	N	-0.570841	1.396928	0.212406
C205	C	-0.272513	0.385652	-0.217568
C206	C	0.227487	0.885652	0.282432
N207	N	-0.299568	0.418809	-0.184303
N208	N	0.200432	0.918809	0.315697
H209	H	-0.832691	0.658892	-0.374489
H210	H	-0.332691	1.158892	0.125511
H211	H	-0.978260	0.228707	-1.063386
H212	H	-0.478260	0.728707	-0.563386
H213	H	-0.978310	1.062429	-0.229303
H214	H	-0.478310	1.562429	0.270697
C215	C	-0.989718	0.934365	-0.217836
C216	C	-0.489718	1.434365	0.282164
N217	N	-1.022931	0.907239	-0.184666
N218	N	-0.522931	1.407239	0.315334
H219	H	-0.465213	0.199253	-0.311022
H220	H	0.034787	0.699253	0.188978
H221	H	-0.346501	0.199235	-0.311026
H222	H	0.153499	0.699235	0.188974
C223	C	-0.895079	0.420098	-0.733467
C224	C	-0.395079	0.920098	-0.233467
N225	N	-0.890972	0.466884	-0.706359
N226	N	-0.390972	0.966884	-0.206359
C227	C	-0.821319	0.385588	-1.072667
C228	C	-0.321319	0.885588	-0.572667
N229	N	-0.788101	0.418787	-1.099762
N230	N	-0.288101	0.918787	-0.599762
C231	C	-0.821387	1.071884	-0.386004
C232	C	-0.321387	1.571884	0.113996
N233	N	-0.788182	1.099015	-0.419177
N234	N	-0.288182	1.599015	0.080823
C235	C	-0.272763	0.217603	-0.386181
C236	C	0.227237	0.717603	0.113819
N237	N	-0.299916	0.184453	-0.419441
N238	N	0.200084	0.684453	0.080559
H239	H	-0.832766	0.374270	-0.659687
H240	H	-0.332766	0.874270	-0.159687
H241	H	-0.803068	0.860773	-0.310753
H242	H	-0.303068	1.360773	0.189247
H243	H	-0.832753	0.374310	-0.540974
H244	H	-0.332753	0.874310	-0.040974
C245	C	-0.821351	0.934475	-0.385995
C246	C	-0.321351	1.434475	0.114005
N247	N	-0.788143	0.907392	-0.419180
N248	N	-0.288143	1.407392	0.080820
H249	H	-0.465002	0.404069	-0.292710
H250	H	0.034998	0.904069	0.207290
C251	C	-0.676399	0.217666	-0.386155
C252	C	-0.176399	0.717666	0.113845
N253	N	-0.703550	0.184512	-0.419413
N254	N	-0.203550	0.684512	0.080587
H255	H	-0.144689	0.229013	-0.374710
H256	H	0.355311	0.729013	0.125290
H257	H	-0.548325	0.229080	-0.374689
H258	H	-0.048325	0.729080	0.125311
