data_functionalizedCrystal
_audit_creation_method	'MofGen! by Chris Wilmer'
_symmetry_space_group_name_H-M	'P1'
_symmetry_Int_Tables_number	1
_symmetry_cell_setting	triclinic
loop_
_symmetry_equiv_pos_as_xyz
  x,y,z
_cell_length_a	15.944551
_cell_length_b	18.266242
_cell_length_c	15.944551
_cell_angle_alpha	89.993922
_cell_angle_beta	96.501262
_cell_angle_gamma	90.004451
loop_
_atom_site_label
_atom_site_type_symbol
_atom_site_fract_x
_atom_site_fract_y
_atom_site_fract_z
O1	O	1.114530	0.060806	-0.108332
O2	O	1.614530	0.560806	0.391668
O3	O	0.869980	0.060825	-0.121688
O4	O	1.369980	0.560825	0.378312
O5	O	0.998933	0.060808	0.007265
O6	O	1.498933	0.560808	0.507265
O7	O	0.985577	0.060822	-0.237285
O8	O	1.485577	0.560822	0.262715
O9	O	0.998911	-0.060954	0.007268
O10	O	1.498911	0.439046	0.507268
O11	O	0.869958	-0.060937	-0.121684
O12	O	1.369958	0.439063	0.378316
O13	O	1.114508	-0.060956	-0.108328
O14	O	1.614508	0.439044	0.391672
Zn15	Zn	0.992229	-0.080279	-0.115006
Zn16	Zn	1.492229	0.419721	0.384994
Zn17	Zn	0.992258	0.080148	-0.115011
Zn18	Zn	1.492258	0.580148	0.384989
O19	O	0.985555	-0.060940	-0.237281
O20	O	1.485555	0.439060	0.262719
C21	C	0.838675	-0.000054	-0.121132
C22	C	1.338675	0.499946	0.378868
C23	C	0.745429	-0.000047	-0.119470
C24	C	1.245429	0.499953	0.380530
N25	N	0.992216	-0.189766	-0.115002
N26	N	1.492216	0.310234	0.384998
C27	C	0.530572	-0.000066	-0.035565
C28	C	1.030572	0.499934	0.464435
C29	C	0.469563	0.059971	-0.074529
C30	C	0.969563	0.559971	0.425471
C31	C	0.574703	-0.000056	-0.116462
C32	C	1.074703	0.499944	0.383538
C33	C	0.469564	-0.060077	-0.074545
C34	C	0.969564	0.439923	0.425455
C35	C	0.409790	-0.000068	-0.113551
C36	C	0.909790	0.499932	0.386449
C37	C	0.514922	0.060031	-0.155449
C38	C	1.014922	0.560031	0.344551
C39	C	0.514929	-0.060071	-0.155453
C40	C	1.014929	0.439929	0.344547
C41	C	0.453937	-0.000019	-0.194476
C42	C	0.953937	0.499981	0.305524
C43	C	0.669705	-0.000049	-0.118137
C44	C	1.169705	0.499951	0.381863
C45	C	0.314789	-0.000070	-0.111883
C46	C	0.814789	0.499930	0.388117
C47	C	1.043153	-0.228070	-0.165983
C48	C	1.543153	0.271930	0.334017
C49	C	1.043167	-0.304714	-0.165981
C50	C	1.543167	0.195286	0.334019
C51	C	0.992228	-0.343053	-0.115007
C52	C	1.492228	0.156947	0.384993
C53	C	0.941287	-0.304740	-0.064015
C54	C	1.441287	0.195260	0.435985
C55	C	0.941281	-0.228096	-0.064013
C56	C	1.441281	0.271904	0.435987
N57	N	0.918658	-0.463400	-0.112709
N58	N	1.418658	0.036600	0.387291
N59	N	0.918666	-0.536208	-0.112716
N60	N	1.418666	-0.036208	0.387284
C61	C	0.992245	-0.573975	-0.115010
C62	C	1.492245	-0.073975	0.384990
N63	N	1.065816	-0.536184	-0.117313
N64	N	1.565816	-0.036184	0.382687
N65	N	1.065807	-0.463369	-0.117310
N66	N	1.565807	0.036631	0.382690
C67	C	0.992229	-0.426160	-0.115004
C68	C	1.492229	0.073840	0.384996
C69	C	1.043202	-0.695386	-0.165992
C70	C	1.543202	-0.195386	0.334008
C71	C	1.043217	-0.772032	-0.165983
C72	C	1.543217	-0.272032	0.334017
C73	C	0.941329	-0.772056	-0.064023
C74	C	1.441329	-0.272056	0.435977
C75	C	0.941321	-0.695411	-0.064026
C76	C	1.441321	-0.195411	0.435974
C77	C	0.992256	-0.657081	-0.115015
C78	C	1.492256	-0.157081	0.384985
C79	C	1.145813	-0.000075	-0.108885
C80	C	1.645813	0.499925	0.391115
C81	C	1.239059	-0.000078	-0.110547
C82	C	1.739059	0.499922	0.389453
C83	C	0.998367	-0.000073	0.038561
C84	C	1.498367	0.499927	0.538561
C85	C	0.996705	-0.000073	0.131807
C86	C	1.496705	0.499927	0.631807
N87	N	0.992279	0.189635	-0.115008
N88	N	1.492279	0.689635	0.384992
C89	C	0.986120	-0.000057	-0.268577
C90	C	1.486120	0.499943	0.231423
C91	C	0.987782	-0.000052	-0.361823
C92	C	1.487782	0.499948	0.138177
C93	C	0.912801	-0.000057	0.346663
C94	C	1.412801	0.499943	0.846663
C95	C	0.951752	-0.060096	0.407682
C96	C	1.451752	0.439904	0.907682
C97	C	0.993698	-0.000067	0.302533
C98	C	1.493698	0.499933	0.802533
C99	C	0.951793	0.059952	0.407662
C100	C	1.451793	0.559952	0.907662
C101	C	0.990787	-0.000058	0.467445
C102	C	1.490787	0.499942	0.967445
C103	C	1.032672	-0.060156	0.362323
C104	C	1.532672	0.439844	0.862323
C105	C	1.032701	0.059946	0.362297
C106	C	1.532701	0.559946	0.862297
C107	C	1.071711	-0.000108	0.423298
C108	C	1.571711	0.499892	0.923298
C109	C	0.995372	-0.000073	0.207530
C110	C	1.495372	0.499927	0.707530
C111	C	0.989119	-0.000058	0.562446
C112	C	1.489119	0.499942	1.062446
H113	H	0.563905	0.000004	0.031573
H114	H	1.063905	0.500004	0.531573
N115	N	0.539987	0.123787	-0.198330
N116	N	1.039987	0.623787	0.301670
N117	N	0.485753	0.169191	-0.227634
N118	N	0.985753	0.669191	0.272366
H119	H	0.503456	0.214220	-0.257916
H120	H	1.003456	0.714220	0.242084
H121	H	1.066897	0.110702	0.342165
H122	H	1.566897	0.610702	0.842165
H123	H	0.917575	0.110714	0.427738
H124	H	1.417575	0.610714	0.927738
N125	N	0.908824	-0.123769	0.432906
N126	N	1.408824	0.376231	0.932906
N127	N	0.878896	-0.168955	0.378708
N128	N	1.378896	0.331045	0.878708
H129	H	0.848573	-0.213923	0.396518
H130	H	1.348573	0.286077	0.896518
N131	N	0.889238	-0.343898	-0.011962
N132	N	1.389238	0.156102	0.488038
N133	N	0.810963	-0.335346	-0.021971
N134	N	1.310963	0.164654	0.478029
H135	H	0.774203	-0.363002	0.014794
H136	H	1.274203	0.136998	0.514794
N137	N	0.444359	0.123643	-0.031604
N138	N	0.944359	0.623643	0.468396
N139	N	0.472130	0.134339	0.043888
N140	N	0.972130	0.634339	0.543888
H141	H	0.454336	0.179306	0.074208
H142	H	0.954336	0.679306	0.574208
N143	N	1.075535	-0.123905	0.337240
N144	N	1.575535	0.376095	0.837240
N145	N	1.037712	-0.168609	0.287018
N146	N	1.537712	0.331391	0.787018
H147	H	1.067980	-0.213633	0.269300
H148	H	1.567980	0.286367	0.769300
N149	N	0.412346	0.000032	-0.278788
N150	N	0.912346	0.500032	0.221212
N151	N	0.424065	0.051628	-0.327631
N152	N	0.924065	0.551628	0.172369
H153	H	0.394691	0.051667	-0.387177
H154	H	0.894691	0.551667	0.112823
N155	N	1.156024	-0.000159	0.464889
N156	N	1.656024	0.499841	0.964889
N157	N	1.204857	-0.051755	0.453177
N158	N	1.704857	0.448245	0.953177
H159	H	1.264403	-0.051795	0.482550
H160	H	1.764403	0.448205	0.982550
N161	N	0.540168	-0.123748	-0.198335
N162	N	1.040168	0.376252	0.301665
N163	N	0.525883	-0.186041	-0.170761
N164	N	1.025883	0.313959	0.329239
H165	H	0.543709	-0.231020	-0.201041
H166	H	1.043709	0.268980	0.298959
H167	H	0.449468	-0.110832	-0.040312
H168	H	0.949468	0.389168	0.459688
H169	H	1.084632	-0.196866	-0.207499
H170	H	1.584632	0.303134	0.292501
N171	N	1.095209	-0.343840	-0.218062
N172	N	1.595209	0.156160	0.281938
N173	N	1.140683	-0.309608	-0.263580
N174	N	1.640683	0.190392	0.236420
H175	H	1.177437	-0.337238	-0.300363
H176	H	1.677437	0.162762	0.199637
H177	H	0.899799	-0.196910	-0.022497
H178	H	1.399799	0.303090	0.477503
N179	N	1.095253	-0.656238	-0.218058
N180	N	1.595253	-0.156238	0.281942
N181	N	1.140750	-0.690451	-0.263556
N182	N	1.640750	-0.190451	0.236444
H183	H	1.177519	-0.662806	-0.300322
H184	H	1.677519	-0.162806	0.199678
H185	H	1.084703	-0.803218	-0.207496
H186	H	1.584703	-0.303218	0.292504
N187	N	0.889305	-0.811219	-0.011953
N188	N	1.389305	-0.311219	0.488047
N189	N	0.889317	-0.879650	-0.011960
N190	N	1.389317	-0.379650	0.488040
H191	H	0.852575	-0.907314	0.024817
H192	H	1.352575	-0.407314	0.524817
H193	H	0.899839	-0.664224	-0.022515
H194	H	1.399839	-0.164224	0.477485
H195	H	0.845652	-0.000112	0.313356
H196	H	1.345652	0.499888	0.813356
