data_functionalizedCrystal
_audit_creation_method	'MofGen! by Chris Wilmer'
_symmetry_space_group_name_H-M	'P1'
_symmetry_Int_Tables_number	1
_symmetry_cell_setting	triclinic
loop_
_symmetry_equiv_pos_as_xyz
  x,y,z
_cell_length_a	14.908979
_cell_length_b	17.637651
_cell_length_c	14.908308
_cell_angle_alpha	98.643595
_cell_angle_beta	83.628929
_cell_angle_gamma	105.097363
loop_
_atom_site_label
_atom_site_type_symbol
_atom_site_fract_x
_atom_site_fract_y
_atom_site_fract_z
Zn1	Zn	1.295809	-0.268049	0.373491
Zn2	Zn	1.277386	-0.392183	0.195025
Zn3	Zn	1.153173	-0.268087	0.230862
Zn4	Zn	1.113838	-0.408325	0.351531
O5	O	1.210051	-0.334161	0.287727
O6	O	1.421503	-0.277744	0.344009
O7	O	1.269661	-0.368981	0.074590
O8	O	1.196266	-0.157441	0.273970
O9	O	1.407968	-0.368945	0.212891
O10	O	1.301060	-0.157414	0.378759
O11	O	1.178403	-0.277809	0.100919
O12	O	1.019817	-0.293461	0.252676
O13	O	1.129224	-0.396456	0.479633
O14	O	0.990917	-0.396493	0.341331
O15	O	1.262918	-0.293396	0.495767
O16	O	1.231519	-0.504964	0.191598
O17	O	1.111361	-0.516824	0.306582
C18	C	0.972142	-0.346733	0.298510
C19	C	0.870357	-0.352132	0.303140
C20	C	0.711865	-0.413456	0.355704
C21	C	0.807499	-0.408384	0.351362
C22	C	0.837574	-0.300950	0.259256
C23	C	0.741939	-0.306022	0.263599
C24	C	0.679087	-0.362276	0.311826
C25	C	0.583451	-0.367344	0.316174
C26	C	0.613527	-0.259913	0.224063
C27	C	0.709162	-0.254842	0.219720
C28	C	1.165196	-0.539582	0.242836
C29	C	1.146088	-0.627459	0.223658
C30	C	1.355786	-0.916137	0.433678
C31	C	1.337804	-0.998712	0.415642
C32	C	1.228768	-0.998838	0.306412
C33	C	1.246745	-0.916261	0.324434
C34	C	1.310254	-0.874917	0.388069
C35	C	1.201213	-0.875042	0.278826
C36	C	1.219185	-0.792473	0.296851
C37	C	1.282689	-0.751123	0.360485
C38	C	1.328226	-0.792348	0.406094
C39	C	1.137699	-0.916387	0.215196
C40	C	1.092167	-0.875168	0.169588
C41	C	1.110144	-0.792597	0.187608
C42	C	1.173648	-0.751247	0.251241
C43	C	1.064606	-0.751372	0.141998
C44	C	1.082579	-0.668802	0.160023
C45	C	1.191620	-0.668678	0.269267
C46	C	1.448890	-0.321540	0.276902
C47	C	1.550669	-0.316161	0.272289
C48	C	1.193738	-0.346723	0.521068
C49	C	1.186786	-0.352076	0.620503
C50	C	1.255106	-0.127937	0.332812
C51	C	1.274305	-0.040057	0.352024
C52	C	1.226366	-0.321588	0.055304
C53	C	1.233544	-0.316002	-0.044090
C54	C	1.312939	-0.254801	0.824160
C55	C	1.306411	-0.259828	0.917589
C56	C	1.167199	-0.367153	0.900794
C57	C	1.173727	-0.362126	0.807365
C58	C	1.246601	-0.305949	0.769051
C59	C	1.253132	-0.300926	0.675619
C60	C	1.113916	-0.408247	0.658827
C61	C	1.107388	-0.413273	0.752256
H62	H	0.660690	-0.459254	0.394982
C63	C	1.335019	-0.158452	1.045320
C64	C	1.379333	-0.203602	0.978164
H65	H	1.380041	-0.123735	1.082711
H66	H	1.290699	-0.192626	1.081509
H67	H	1.304274	-0.128364	1.017280
H68	H	1.410072	-0.233695	1.006204
H69	H	1.423669	-0.169424	0.941970
H70	H	0.586832	-0.218236	0.188338
C71	C	0.958619	-0.743205	0.035834
C72	C	0.994792	-0.796823	0.072060
H73	H	0.915513	-0.771266	-0.007338
H74	H	1.007946	-0.707042	0.006865
H75	H	0.927852	-0.714954	0.083410
H76	H	1.025565	-0.825070	0.024485
H77	H	0.945456	-0.833000	0.101029
C78	C	1.064099	-0.525950	0.834655
C79	C	1.027290	-0.475023	0.794375
H80	H	1.014648	-0.564076	0.860650
H81	H	1.102663	-0.496206	0.880846
H82	H	1.099937	-0.552118	0.789780
H83	H	0.991457	-0.448851	0.839252
H84	H	0.988710	-0.504771	0.748179
H85	H	0.760349	-0.209043	0.180453
H86	H	1.243343	-0.635014	0.321077
C87	C	1.062105	-0.448201	0.508150
C88	C	1.040989	-0.464473	0.598248
H89	H	1.017082	-0.482911	0.470754
H90	H	1.122166	-0.455695	0.487528
H91	H	1.061373	-0.394962	0.505064
H92	H	1.041728	-0.517710	0.601335
H93	H	0.980912	-0.456985	0.618876
H94	H	0.834181	-0.450061	0.387092
H95	H	0.532278	-0.413146	0.355446
C96	C	0.997532	-0.245482	0.211703
C97	C	0.906671	-0.239120	0.206248
H98	H	1.040189	-0.207307	0.178982
H99	H	1.002526	-0.297041	0.186195
H100	H	1.011508	-0.236400	0.273635
H101	H	0.892693	-0.248209	0.144316
H102	H	0.901674	-0.187549	0.231752
C103	C	1.219710	-0.638718	0.412982
C104	C	1.302447	-0.660361	0.380304
H105	H	1.231909	-0.582685	0.425212
H106	H	1.195737	-0.661337	0.467336
H107	H	1.175379	-0.657443	0.368550
H108	H	1.346776	-0.641641	0.424739
H109	H	1.326433	-0.637733	0.325942
C110	C	1.434206	-0.800510	0.512279
C111	C	1.398032	-0.746895	0.476049
H112	H	1.477291	-0.772448	0.555470
H113	H	1.464988	-0.828747	0.464717
H114	H	1.384869	-0.836687	0.541236
H115	H	1.447369	-0.710721	0.447086
H116	H	1.367249	-0.718645	0.523619
C117	C	1.447369	-0.990294	0.525464
C118	C	1.387841	-1.044023	0.465798
H119	H	1.478253	-1.018270	0.556429
H120	H	1.412055	-0.962048	0.568469
H121	H	1.492179	-0.954135	0.491954
H122	H	1.343026	-1.080179	0.499309
H123	H	1.423157	-1.072282	0.422787
H124	H	1.407509	-0.882473	0.485489
H125	H	1.123059	-0.983621	0.200531
C126	C	1.152806	-1.125466	0.230268
C127	C	1.158966	-1.044287	0.236461
H128	H	1.109719	-1.153520	0.187076
H129	H	1.132201	-1.142931	0.288015
H130	H	1.212322	-1.135000	0.211497
H131	H	1.099451	-1.034752	0.255239
H132	H	1.179567	-1.026816	0.178701
H133	H	1.040455	-0.908841	0.117779
C134	C	0.980493	-0.581860	0.173336
C135	C	1.032532	-0.623485	0.109893
H136	H	0.949590	-0.553887	0.142387
H137	H	1.020888	-0.545426	0.213805
H138	H	0.935697	-0.618042	0.206831
H139	H	1.077333	-0.587303	0.076403
H140	H	0.992133	-0.659923	0.069408
C141	C	1.123890	-0.479815	0.983221
C142	C	1.087094	-0.428887	0.942928
H143	H	1.074433	-0.517927	1.009230
H144	H	1.162465	-0.450069	1.029403
H145	H	1.159715	-0.505999	0.938350
H146	H	1.051274	-0.402699	0.987801
H147	H	1.048504	-0.458638	0.896741
H148	H	1.312470	-0.255185	0.644425
H149	H	1.372280	-0.209063	0.792963
