data_functionalizedCrystal
_audit_creation_method	'MofGen! by Chris Wilmer'
_symmetry_space_group_name_H-M	'P1'
_symmetry_Int_Tables_number	1
_symmetry_cell_setting	triclinic
loop_
_symmetry_equiv_pos_as_xyz
  x,y,z
_cell_length_a	16.959455
_cell_length_b	16.959453
_cell_length_c	21.395355
_cell_angle_alpha	90.017325
_cell_angle_beta	90.023799
_cell_angle_gamma	90.019416
loop_
_atom_site_label
_atom_site_type_symbol
_atom_site_fract_x
_atom_site_fract_y
_atom_site_fract_z
Zn1	Zn	1.208455	-0.314785	0.354254
Zn2	Zn	1.708455	0.185215	0.854254
Zn3	Zn	1.208357	-0.446946	0.249479
Zn4	Zn	1.708357	0.053054	0.749479
Zn5	Zn	1.076263	-0.314784	0.249492
Zn6	Zn	1.576263	0.185216	0.749492
Zn7	Zn	1.076248	-0.446924	0.354220
Zn8	Zn	1.576248	0.053076	0.854220
O9	O	1.142331	-0.380860	0.301861
O10	O	1.642331	0.119140	0.801861
O11	O	1.319053	-0.332326	0.340364
O12	O	1.819053	0.167674	0.840364
O13	O	1.190799	-0.429423	0.161803
O14	O	1.690799	0.070577	0.661803
O15	O	1.093845	-0.204173	0.263409
O16	O	1.593845	0.295827	0.763409
O17	O	1.318981	-0.429424	0.263386
O18	O	1.818981	0.070576	0.763386
O19	O	1.190967	-0.204174	0.340377
O20	O	1.690967	0.295826	0.840377
O21	O	1.093750	-0.332324	0.161812
O22	O	1.593750	0.167676	0.661812
O23	O	0.965650	-0.332303	0.263376
O24	O	1.465650	0.167697	0.763376
O25	O	1.093821	-0.429387	0.441903
O26	O	1.593821	0.070613	0.941903
O27	O	0.965640	-0.429386	0.340319
O28	O	1.465640	0.070614	0.840319
O29	O	1.190953	-0.332305	0.441927
O30	O	1.690953	0.167695	0.941927
O31	O	1.190785	-0.557554	0.263353
O32	O	1.690785	-0.057554	0.763353
O33	O	1.093726	-0.557538	0.340306
O34	O	1.593726	-0.057538	0.840306
C35	C	0.936965	-0.380843	0.301846
C36	C	1.436965	0.119157	0.801846
C37	C	0.849108	-0.380854	0.301854
C38	C	1.349108	0.119146	0.801854
C39	C	1.142265	-0.586226	0.301838
C40	C	1.642265	-0.086226	0.801838
C41	C	1.142309	-0.674083	0.301849
C42	C	1.642309	-0.174083	0.801849
C43	C	0.807794	-0.431337	0.261718
C44	C	1.307794	0.068663	0.761718
C45	C	0.807868	-0.330378	0.341995
C46	C	1.307868	0.169622	0.841995
C47	C	0.725322	-0.330384	0.342002
C48	C	1.225322	0.169616	0.842002
C49	C	0.684009	-0.380867	0.301867
C50	C	1.184009	0.119133	0.801867
C51	C	0.725241	-0.431343	0.261723
C52	C	1.225241	0.068657	0.761723
C53	C	0.684083	-0.279904	0.382141
C54	C	1.184083	0.220096	0.882141
C55	C	0.601532	-0.279907	0.382149
C56	C	1.101532	0.220093	0.882149
C57	C	0.560218	-0.330394	0.342016
C58	C	1.060218	0.169606	0.842016
C59	C	0.601455	-0.380873	0.301871
C60	C	1.101455	0.119127	0.801871
C61	C	0.560142	-0.431355	0.261736
C62	C	1.060142	0.068645	0.761736
C63	C	0.601378	-0.481839	0.221594
C64	C	1.101378	0.018161	0.721594
C65	C	0.683926	-0.481830	0.221590
C66	C	1.183926	0.018170	0.721590
C67	C	0.477669	-0.330403	0.342020
C68	C	0.977669	0.169597	0.842020
C69	C	0.477588	-0.431361	0.261741
C70	C	0.977588	0.068639	0.761741
C71	C	1.192967	-1.045500	0.342014
C72	C	1.692967	-0.545500	0.842014
C73	C	1.091916	-1.045616	0.261801
C74	C	1.591916	-0.545616	0.761801
C75	C	1.091886	-0.963070	0.261787
C76	C	1.591886	-0.463070	0.761787
C77	C	1.142397	-0.921736	0.301887
C78	C	1.642397	-0.421736	0.801887
C79	C	1.192937	-0.962947	0.342002
C80	C	1.692937	-0.462947	0.842002
C81	C	1.041342	-0.921853	0.221677
C82	C	1.541342	-0.421853	0.721677
C83	C	1.041310	-0.839302	0.221662
C84	C	1.541310	-0.339302	0.721662
C85	C	1.091825	-0.797966	0.261760
C86	C	1.591825	-0.297966	0.761760
C87	C	1.142368	-0.839182	0.301876
C88	C	1.642368	-0.339182	0.801876
C89	C	1.192878	-0.797847	0.341976
C90	C	1.692878	-0.297847	0.841976
C91	C	1.243426	-0.839062	0.382090
C92	C	1.743426	-0.339062	0.882090
C93	C	1.243452	-0.921610	0.382100
C94	C	1.743452	-0.421610	0.882100
C95	C	1.091798	-0.715418	0.261749
C96	C	1.591798	-0.215418	0.761749
C97	C	1.192849	-0.715294	0.341964
C98	C	1.692849	-0.215294	0.841964
C99	C	1.348499	-0.380878	0.301877
C100	C	1.848499	0.119122	0.801877
C101	C	1.436356	-0.380885	0.301884
C102	C	1.936356	0.119115	0.801884
C103	C	1.142396	-0.380844	0.465285
C104	C	1.642396	0.119156	0.965285
C105	C	1.142424	-0.380837	0.534926
C106	C	1.642424	0.119163	1.034926
C107	C	1.142419	-0.174692	0.301898
C108	C	1.642419	0.325308	0.801898
C109	C	1.142456	-0.086835	0.301914
C110	C	1.642456	0.413165	0.801914
C111	C	1.142311	-0.380819	0.139074
C112	C	1.642311	0.119181	0.639074
C113	C	1.142436	-0.380603	0.069433
C114	C	1.642436	0.119397	0.569433
C115	C	1.192999	-0.330284	0.567653
C116	C	1.692999	0.169716	1.067653
C117	C	1.192998	-0.330250	0.633088
C118	C	1.692998	0.169750	1.133088
C119	C	1.142431	-0.380783	0.665794
C120	C	1.642431	0.119217	1.165794
C121	C	1.091846	-0.431339	0.633059
C122	C	1.591846	0.068661	1.133059
C123	C	1.091843	-0.431366	0.567625
C124	C	1.591843	0.068634	1.067625
C125	C	1.136166	-0.451954	0.769461
C126	C	1.636166	0.048046	1.269461
C127	C	1.136175	-0.451929	0.834894
C128	C	1.636175	0.048071	1.334894
C129	C	1.142435	-0.380700	0.867615
C130	C	1.642435	0.119300	1.367615
C131	C	1.148704	-0.309494	0.834895
C132	C	1.648704	0.190506	1.334895
C133	C	1.148701	-0.309521	0.769461
C134	C	1.648701	0.190479	1.269461
C135	C	1.142428	-0.380759	0.736747
C136	C	1.642428	0.119241	1.236747
C137	C	1.193011	-0.330106	0.971295
C138	C	1.693011	0.169894	1.471295
C139	C	1.193005	-0.330070	1.036731
C140	C	1.693005	0.169930	1.536731
C141	C	1.091858	-0.431167	1.036701
C142	C	1.591858	0.068833	1.536701
C143	C	1.091860	-0.431195	0.971266
C144	C	1.591860	0.068805	1.471266
C145	C	1.142441	-0.380666	0.938566
C146	C	1.642441	0.119334	1.438566
H147	H	0.443956	-0.472474	0.229059
H148	H	0.943956	0.027526	0.729059
H149	H	1.050656	-0.472531	0.540979
H150	H	1.550656	0.027469	1.040979
C151	C	1.298985	-0.793583	0.426199
C152	C	1.798985	-0.293583	0.926199
N153	N	1.340833	-0.759325	0.459420
N154	N	1.840833	-0.259325	0.959420
H155	H	1.284605	-0.955175	0.414759
H156	H	1.784605	-0.455175	0.914759
C157	C	0.729533	-0.224370	0.426282
C158	C	1.229533	0.275630	0.926282
N159	N	0.763769	-0.182540	0.459530
N160	N	1.263769	0.317460	0.959530
H161	H	1.234123	-1.079061	0.374672
H162	H	1.734123	-0.579061	0.874672
C163	C	1.248629	-0.274690	0.531688
C164	C	1.748629	0.225310	1.031688
N165	N	1.290527	-0.232812	0.504597
N166	N	1.790527	0.267188	1.004597
H167	H	1.233984	-0.681644	0.374617
H168	H	1.733984	-0.181644	0.874617
C169	C	0.555922	-0.537366	0.177444
C170	C	1.055922	-0.037366	0.677444
N171	N	0.521682	-0.579188	0.144192
N172	N	1.021682	-0.079188	0.644192
C173	C	0.729292	-0.537347	0.177430
C174	C	1.229292	-0.037347	0.677430
N175	N	0.763464	-0.579157	0.144166
N176	N	1.263464	-0.079157	0.644166
C177	C	0.853154	-0.486862	0.217561
C178	C	1.353154	0.013138	0.717561
N179	N	0.887320	-0.528682	0.184300
N180	N	1.387320	-0.028682	0.684300
C181	C	0.556180	-0.224381	0.426310
C182	C	1.056180	0.275619	0.926310
N183	N	0.522021	-0.182560	0.459575
N184	N	1.022021	0.317440	0.959575
C185	C	0.985701	-0.793974	0.177542
C186	C	1.485701	-0.293974	0.677542
N187	N	0.943813	-0.759832	0.144312
N188	N	1.443813	-0.259832	0.644312
H189	H	1.000217	-0.955514	0.189031
H190	H	1.500217	-0.455514	0.689031
H191	H	0.841510	-0.289274	0.374669
H192	H	1.341510	0.210726	0.874669
H193	H	1.050682	-0.472365	0.944619
H194	H	1.550682	0.027635	1.444619
H195	H	1.050789	-1.079276	0.229156
H196	H	1.550789	-0.579276	0.729156
H197	H	0.444098	-0.289294	0.374698
H198	H	0.944098	0.210706	0.874698
H199	H	1.050640	-0.681864	0.229092
H200	H	1.550640	-0.181864	0.729092
H201	H	1.234193	-0.288957	0.944670
H202	H	1.734193	0.211043	1.444670
C203	C	1.155589	-0.231135	0.870883
C204	C	1.655589	0.268865	1.370883
N205	N	1.160776	-0.172117	0.897993
N206	N	1.660776	0.327883	1.397993
C207	C	1.248640	-0.274641	0.669095
C208	C	1.748640	0.225359	1.169095
N209	N	1.290553	-0.232758	0.696214
N210	N	1.790553	0.267242	1.196214
H211	H	1.153803	-0.251543	0.742823
H212	H	1.653803	0.248457	1.242823
H213	H	1.234187	-0.288900	1.063377
H214	H	1.734187	0.211100	1.563377
H215	H	1.050677	-0.472303	1.063330
H216	H	1.550677	0.027697	1.563330
C217	C	1.129279	-0.530256	0.870880
C218	C	1.629279	-0.030256	1.370880
N219	N	1.124083	-0.589254	0.897983
N220	N	1.624083	-0.089254	1.397983
H221	H	1.130857	-0.509943	0.742825
H222	H	1.630857	-0.009943	1.242825
C223	C	1.036219	-0.486922	0.669037
C224	C	1.536219	0.013078	1.169037
N225	N	0.994316	-0.528786	0.696136
N226	N	1.494316	-0.028786	1.196136
