data_functionalizedCrystal
_audit_creation_method	'MofGen! by Chris Wilmer'
_symmetry_space_group_name_H-M	'P1'
_symmetry_Int_Tables_number	1
_symmetry_cell_setting	triclinic
loop_
_symmetry_equiv_pos_as_xyz
  x,y,z
_cell_length_a	15.995292
_cell_length_b	15.944545
_cell_length_c	14.472310
_cell_angle_alpha	89.996829
_cell_angle_beta	89.985801
_cell_angle_gamma	83.482394
loop_
_atom_site_label
_atom_site_type_symbol
_atom_site_fract_x
_atom_site_fract_y
_atom_site_fract_z
O1	O	1.111030	0.108032	-0.076870
O2	O	0.867249	0.121453	-0.076867
O3	O	0.995800	-0.007535	-0.076858
O4	O	0.982480	0.237019	-0.076880
O5	O	0.995767	-0.007527	0.076824
O6	O	0.867216	0.121460	0.076815
O7	O	1.110997	0.108039	0.076812
Cu8	Cu	0.989104	0.114750	0.090846
Cu9	Cu	0.989143	0.114742	-0.090901
O10	O	0.982447	0.237027	0.076802
C11	C	0.836037	0.120910	-0.000026
C12	C	0.743084	0.119273	-0.000024
C13	C	0.405345	0.113252	-0.000034
C14	C	0.428661	0.206352	-0.000385
C15	C	0.525336	0.208122	-0.000035
C16	C	0.572901	0.116240	-0.000030
C17	C	0.543779	0.069698	0.087731
C18	C	0.446988	0.068578	0.087801
C19	C	0.447170	0.066668	-0.086964
C20	C	0.543663	0.070118	-0.088120
C21	C	0.667597	0.117923	-0.000024
C22	C	0.310649	0.111566	-0.000033
C23	C	0.995231	-0.038825	-0.000016
C24	C	0.993576	-0.132071	-0.000013
C25	C	0.908949	-0.402681	-0.000031
C26	C	0.949766	-0.352110	-0.075805
C27	C	0.987674	-0.467713	-0.000040
C28	C	0.949754	-0.352130	0.075713
C29	C	0.990570	-0.302800	-0.000025
C30	C	1.028470	-0.418370	-0.075876
C31	C	1.028446	-0.418393	0.075710
C32	C	1.069321	-0.367855	-0.000083
C33	C	0.986004	-0.562715	-0.000049
C34	C	0.992246	-0.207801	-0.000023
C35	C	1.142210	0.108582	-0.000032
C36	C	1.235163	0.110219	-0.000040
C37	C	0.983015	0.268317	-0.000042
C38	C	0.984670	0.361563	-0.000050
N39	N	0.989082	0.114756	0.218677
N40	N	0.989171	0.114729	-0.218732
C41	C	0.989142	0.114738	0.592768
C42	C	0.920126	0.183525	0.553597
C43	C	0.920285	0.183776	0.446509
C44	C	0.989111	0.114747	0.407177
C45	C	1.076479	0.133871	0.446011
C46	C	1.076091	0.134360	0.553132
C47	C	0.971569	0.026623	0.553305
C48	C	0.969565	0.027211	0.446178
C49	C	0.989100	0.114750	0.302289
C50	C	0.989159	0.114737	0.697656
H51	H	0.400679	0.242234	-0.063323
N52	N	0.819149	-0.423407	-0.000130
H53	H	0.808667	-0.456909	0.057118
H54	H	0.779573	-0.369344	-0.000794
N55	N	0.905753	-0.313775	-0.160664
H56	H	0.845210	-0.326149	-0.160609
H57	H	0.907734	-0.250690	-0.160292
H58	H	0.855343	0.172385	0.420255
H59	H	0.543727	0.244797	0.062976
H60	H	1.129052	0.086233	0.579041
H61	H	0.420158	0.100816	0.153400
N62	N	0.568294	0.114987	-0.174127
H63	H	0.598267	0.164982	-0.156114
H64	H	0.606939	0.074790	-0.213044
H65	H	1.137172	-0.352382	-0.000126
H66	H	0.433175	-0.001860	-0.087553
H67	H	1.061706	-0.447188	-0.140008
N68	N	1.072436	-0.456752	0.160564
H69	H	1.042620	-0.432538	0.217775
H70	H	1.071465	-0.519969	0.159522
H71	H	0.916479	-0.323204	0.139772
N72	N	0.409763	0.105287	-0.175080
H73	H	0.365319	0.153375	-0.159537
H74	H	0.455527	0.127238	-0.213162
N75	N	0.884406	0.008009	0.412626
H76	H	0.858593	0.055803	0.372321
H77	H	0.891078	-0.046103	0.375732
H78	H	0.931193	0.248547	0.580500
N79	N	0.587328	-0.018719	-0.095144
H80	H	0.626856	-0.030380	-0.041078
H81	H	0.543951	-0.060068	-0.094391
N82	N	0.833820	0.168695	0.587757
H83	H	0.838617	0.117245	0.628958
H84	H	0.808571	0.219582	0.623861
H85	H	1.021899	-0.024566	0.578635
N86	N	0.934925	0.270451	0.412534
H87	H	0.941330	0.308637	0.467145
H88	H	0.987780	0.266134	0.373817
H89	H	1.091576	0.198622	0.578102
H90	H	0.399630	0.242041	0.062192
H91	H	1.129063	0.085102	0.420531
H92	H	1.092334	0.197400	0.419167
H93	H	0.909244	0.008229	0.580376
N94	N	1.031828	-0.043774	0.410735
H95	H	1.073777	-0.020089	0.368706
H96	H	1.062407	-0.073515	0.464631
N97	N	0.550561	0.256417	-0.083354
H98	H	0.613551	0.257667	-0.083281
H99	H	0.533342	0.227840	-0.141491
H100	H	0.432435	0.000317	0.091792
H101	H	0.575644	0.002086	0.090999
H102	H	0.563825	0.102025	0.153039
