data_functionalizedCrystal
_audit_creation_method	'MofGen! by Chris Wilmer'
_symmetry_space_group_name_H-M	'P1'
_symmetry_Int_Tables_number	1
_symmetry_cell_setting	triclinic
loop_
_symmetry_equiv_pos_as_xyz
  x,y,z
_cell_length_a	16.109301
_cell_length_b	13.262508
_cell_length_c	14.586319
_cell_angle_alpha	105.914532
_cell_angle_beta	89.999213
_cell_angle_gamma	83.966579
loop_
_atom_site_label
_atom_site_type_symbol
_atom_site_fract_x
_atom_site_fract_y
_atom_site_fract_z
O1	O	1.103625	0.134909	-0.042540
O2	O	0.861625	0.151698	-0.038367
O3	O	0.988715	-0.009487	-0.078549
O4	O	0.976535	0.296094	-0.002358
O5	O	0.988706	-0.009490	0.073931
O6	O	0.861616	0.151695	0.114113
O7	O	1.103616	0.134906	0.109941
Cu8	Cu	0.982615	0.143301	0.125949
Cu9	Cu	0.982626	0.143303	-0.054376
O10	O	0.976526	0.296091	0.150123
C11	C	0.830643	0.151017	0.037701
C12	C	0.738340	0.148978	0.037188
C13	C	0.988028	-0.048591	-0.012061
C14	C	0.985986	-0.165106	-0.041118
C15	C	0.516401	0.239881	0.059863
C16	C	0.429673	0.237957	0.059389
C17	C	0.448847	0.046716	0.011703
C18	C	0.535573	0.048641	0.012184
C19	C	0.569347	0.145227	0.036260
C20	C	0.395894	0.141378	0.035305
C21	C	0.301860	0.139291	0.034792
C22	C	0.663387	0.147314	0.036776
C23	C	0.980206	-0.493559	0.209453
C24	C	0.982118	-0.384087	0.236755
C25	C	0.983086	-0.329336	0.167289
C26	C	0.982140	-0.384068	0.070517
C27	C	0.980221	-0.493550	0.043213
C28	C	0.983101	-0.329327	0.001049
C29	C	0.982155	-0.384060	-0.095724
C30	C	0.980237	-0.493531	-0.123023
C31	C	0.979270	-0.548281	-0.053557
C32	C	0.985020	-0.219846	0.028353
C33	C	0.985035	-0.219837	-0.137888
C34	C	0.983123	-0.329309	-0.165190
C35	C	1.134598	0.135588	0.033870
C36	C	1.226901	0.137626	0.034378
C37	C	0.977213	0.335196	0.083632
C38	C	0.979255	0.451710	0.112683
N39	N	0.982614	0.143298	0.252781
N40	N	0.982634	0.143298	-0.181209
C41	C	1.038908	0.071949	0.470000
C42	C	1.038911	0.071947	0.565981
C43	C	0.926333	0.214650	0.601565
C44	C	0.926328	0.214647	0.505585
C45	C	0.982620	0.143298	0.439805
C46	C	0.982628	0.143298	0.631766
C47	C	0.982630	0.143296	0.735833
C48	C	0.982617	0.143298	0.335732
H49	H	0.386567	0.315034	0.078612
H50	H	0.979413	-0.538146	0.266002
N51	N	1.099630	-0.004999	0.598549
H52	H	1.091093	0.005824	0.669332
H53	H	1.089774	-0.079463	0.563207
N54	N	0.412418	-0.057454	-0.014259
H55	H	0.349444	-0.044313	-0.010983
H56	H	0.431764	-0.098875	-0.081112
N57	N	0.979276	-0.552540	-0.227408
H58	H	0.928160	-0.524973	-0.256920
H59	H	1.031149	-0.541941	-0.260964
H60	H	0.543897	0.318527	0.079475
H61	H	0.977717	-0.637423	-0.075782
H62	H	0.880503	0.272743	0.655132
N63	N	0.592687	-0.053455	-0.013265
H64	H	0.558133	-0.114933	-0.028595
H65	H	0.629093	-0.056821	-0.070627
H66	H	0.985816	-0.175259	-0.194453
H67	H	0.985782	-0.175292	0.107146
N68	N	0.985140	-0.211262	0.196731
H69	H	0.985591	-0.184896	0.268576
H70	H	1.037082	-0.193490	0.168495
N71	N	0.982104	-0.388346	-0.269563
H72	H	0.980743	-0.466004	-0.276313
H73	H	0.930964	-0.360687	-0.298970
N74	N	0.983143	-0.325057	0.341122
H75	H	0.982243	-0.376350	0.380985
H76	H	1.035418	-0.288161	0.353945
H77	H	1.084743	0.013851	0.416444
N78	N	0.865611	0.291611	0.473021
H79	H	0.897536	0.338092	0.444781
H80	H	0.828674	0.251411	0.423236
