data_functionalizedCrystal
_audit_creation_method	'MofGen! by Chris Wilmer'
_symmetry_space_group_name_H-M	'P1'
_symmetry_Int_Tables_number	1
_symmetry_cell_setting	triclinic
loop_
_symmetry_equiv_pos_as_xyz
  x,y,z
_cell_length_a	12.759395
_cell_length_b	12.594516
_cell_length_c	12.759387
_cell_angle_alpha	89.968678
_cell_angle_beta	89.981185
_cell_angle_gamma	90.013352
loop_
_atom_site_label
_atom_site_type_symbol
_atom_site_fract_x
_atom_site_fract_y
_atom_site_fract_z
Zn1	Zn	1.606272	-0.423630	-0.594010
Zn2	Zn	1.606177	-0.601651	-0.418332
Zn3	Zn	1.430576	-0.423692	-0.418347
Zn4	Zn	1.430572	-0.601572	-0.593971
O5	O	1.518399	-0.512636	-0.506165
O6	O	1.753281	-0.447252	-0.570716
O7	O	1.582845	-0.578103	-0.271313
O8	O	1.453924	-0.274738	-0.441671
O9	O	1.753211	-0.578044	-0.441646
O10	O	1.583007	-0.274693	-0.570730
O11	O	1.453831	-0.447357	-0.271323
O12	O	1.283554	-0.447281	-0.441634
O13	O	1.453917	-0.577909	-0.740998
O14	O	1.283551	-0.577968	-0.570664
O15	O	1.583003	-0.447176	-0.741026
O16	O	1.582841	-0.750586	-0.441609
O17	O	1.453824	-0.750528	-0.570650
C18	C	1.245432	-0.512623	-0.506147
C19	C	1.128655	-0.512643	-0.506164
C20	C	1.518350	-0.789177	-0.506147
C21	C	1.518426	-0.907483	-0.506174
C22	C	1.128690	-0.648949	-0.640306
C23	C	1.073847	-0.717110	-0.707380
C24	C	0.964126	-0.717123	-0.707393
C25	C	0.909245	-0.648965	-0.640327
C26	C	0.964088	-0.580804	-0.573253
C27	C	1.073812	-0.580801	-0.573245
C28	C	0.964052	-0.444495	-0.439118
C29	C	1.073774	-0.444486	-0.439098
C30	C	0.909171	-0.376337	-0.372051
C31	C	0.964014	-0.308180	-0.304970
C32	C	1.073742	-0.308171	-0.304959
C33	C	1.128617	-0.376325	-0.372024
C34	C	1.588679	-0.976729	-0.436063
C35	C	1.614354	-1.047419	-0.531956
C36	C	1.492882	-1.047592	-0.410342
C37	C	1.544150	-0.976614	-0.602117
C38	C	1.422633	-0.976781	-0.480438
C39	C	1.448272	-1.047439	-0.576397
C40	C	1.792432	-0.512650	-0.506184
C41	C	1.909209	-0.512656	-0.506192
C42	C	1.518470	-0.512526	-0.780199
C43	C	1.518501	-0.512479	-0.896975
C44	C	1.518477	-0.235015	-0.506206
C45	C	1.518510	-0.116710	-0.506224
C46	C	1.384168	-0.376324	-0.897005
C47	C	1.317020	-0.308226	-0.951881
C48	C	1.317052	-0.308187	-1.061603
C49	C	1.384236	-0.376257	-1.116451
C50	C	1.451383	-0.444356	-1.061575
C51	C	1.451346	-0.444385	-0.951851
C52	C	1.585709	-0.580515	-1.061545
C53	C	1.585684	-0.580549	-0.951824
C54	C	1.652893	-0.648584	-1.116394
C55	C	1.720047	-0.716679	-1.061518
C56	C	1.720014	-0.716714	-0.951790
C57	C	1.652832	-0.648648	-0.896948
C58	C	1.518389	-0.512669	-0.233197
C59	C	1.518562	-0.512416	-0.116421
H60	H	1.218032	-0.648953	-0.640295
H61	H	0.819830	-0.376348	-0.372071
Cl62	Cl	0.895017	-0.222499	-0.220676
H63	H	1.384246	-0.376229	-1.205792
Cl64	Cl	1.652922	-0.648547	-1.254331
Cl65	Cl	1.356601	-1.095079	-0.668071
Cl66	Cl	0.771308	-0.648968	-0.640360
H67	H	1.341611	-0.945727	-0.458614
Cl68	Cl	1.459471	-1.095726	-0.285187
H69	H	1.565709	-0.945570	-0.683251
Cl70	Cl	1.804489	-0.802250	-1.130474
H71	H	1.217958	-0.376327	-0.372018
H72	H	1.384144	-0.376340	-0.807664
H73	H	0.919473	-0.772620	-0.762016
Cl74	Cl	1.232583	-0.222639	-0.882924
Cl75	Cl	1.232643	-0.222572	-1.130593
Cl76	Cl	1.142678	-0.222472	-0.220638
Cl77	Cl	1.804426	-0.802336	-0.882812
H78	H	1.648100	-0.945680	-0.376826
Cl79	Cl	1.739485	-1.095305	-0.565626
H80	H	1.652801	-0.648666	-0.807607
H81	H	1.118544	-0.772600	-0.761986
