data_functionalizedCrystal
_audit_creation_method	'MofGen! by Chris Wilmer'
_symmetry_space_group_name_H-M	'P1'
_symmetry_Int_Tables_number	1
_symmetry_cell_setting	triclinic
loop_
_symmetry_equiv_pos_as_xyz
  x,y,z
_cell_length_a	10.968094
_cell_length_b	11.026607
_cell_length_c	17.766277
_cell_angle_alpha	89.996915
_cell_angle_beta	102.118106
_cell_angle_gamma	96.379842
loop_
_atom_site_label
_atom_site_type_symbol
_atom_site_fract_x
_atom_site_fract_y
_atom_site_fract_z
O1	O	1.693891	0.170472	0.157102
O2	O	2.193891	0.670472	0.657102
O3	O	1.334286	0.186805	0.110461
O4	O	1.834286	0.686805	0.610461
O5	O	1.484285	0.001738	0.129919
O6	O	1.984285	0.501738	0.629919
O7	O	1.543892	0.355539	0.137644
O8	O	2.043892	0.855539	0.637644
O9	O	1.484249	0.001729	0.255103
O10	O	1.984249	0.501729	0.755103
O11	O	1.334250	0.186795	0.235645
O12	O	1.834250	0.686795	0.735645
O13	O	1.693855	0.170463	0.282286
O14	O	2.193855	0.670463	0.782286
Cu15	Cu	1.514049	0.178628	0.270396
Cu16	Cu	2.014049	0.678628	0.770396
Cu17	Cu	1.514092	0.178640	0.122351
Cu18	Cu	2.014092	0.678640	0.622351
O19	O	1.543856	0.355529	0.262828
O20	O	2.043856	0.855529	0.762828
C21	C	1.287515	0.185614	0.166989
C22	C	1.787515	0.685614	0.666989
C23	C	1.148203	0.182064	0.148920
C24	C	1.648203	0.682064	0.648920
C25	C	0.942079	0.176795	0.187033
C26	C	1.442079	0.676795	0.687033
C27	C	1.086066	0.180473	0.205716
C28	C	1.586066	0.680473	0.705716
C29	C	1.473270	-0.043569	0.191083
C30	C	1.973270	0.456431	0.691083
C31	C	1.440489	-0.178554	0.186829
C32	C	1.940489	0.321446	0.686829
C33	C	1.531003	-0.251609	0.198568
C34	C	2.031003	0.248391	0.698568
C35	C	1.497125	-0.391125	0.194171
C36	C	1.997125	0.108875	0.694171
C37	C	1.740626	0.171654	0.225756
C38	C	2.240626	0.671654	0.725756
C39	C	1.879938	0.175204	0.243821
C40	C	2.379938	0.675204	0.743821
C41	C	1.554871	0.400836	0.201662
C42	C	2.054871	0.900836	0.701662
C43	C	1.587652	0.535822	0.205911
C44	C	2.087652	1.035822	0.705911
N45	N	1.514028	0.178619	0.374523
N46	N	2.014028	0.678619	0.874523
N47	N	1.514120	0.178639	0.018225
N48	N	2.014120	0.678639	0.518225
C49	C	1.580485	0.096713	0.422531
C50	C	2.080485	0.596713	0.922531
C51	C	1.580491	0.096707	0.501334
C52	C	2.080491	0.596707	1.001334
C53	C	1.514057	0.178629	0.532128
C54	C	2.014057	0.678629	1.032128
C55	C	1.447586	0.260542	0.484109
C56	C	1.947586	0.760542	0.984109
C57	C	1.447572	0.260537	0.405306
C58	C	1.947572	0.760537	0.905306
C59	C	1.522548	0.289219	0.658065
C60	C	2.022548	0.789219	1.158065
C61	C	1.522572	0.289225	0.736867
C62	C	2.022572	0.789225	1.236867
C63	C	1.514094	0.178644	0.775179
C64	C	2.014094	0.678644	1.275179
C65	C	1.505618	0.068052	0.734682
C66	C	2.005618	0.568052	1.234682
C67	C	1.505604	0.068047	0.655880
C68	C	2.005604	0.568047	1.155880
C69	C	1.514064	0.178643	0.617574
C70	C	2.014064	0.678643	1.117574
C71	C	1.580560	0.096725	0.908633
C72	C	2.080560	0.596725	1.408633
C73	C	1.580556	0.096717	0.987436
C74	C	2.080556	0.596717	1.487436
C75	C	1.447660	0.260563	0.970211
C76	C	1.947660	0.760563	1.470211
C77	C	1.447655	0.260560	0.891409
C78	C	1.947655	0.760560	1.391409
C79	C	1.514112	0.178642	0.860625
C80	C	2.014112	0.678642	1.360625
H81	H	0.888680	0.175428	0.124583
H82	H	1.388680	0.675428	0.624583
F83	F	1.155848	0.182241	0.287348
F84	F	1.655848	0.682241	0.787348
F85	F	1.376838	0.347717	0.354211
F86	F	1.876838	0.847717	0.854211
F87	F	1.651282	0.009536	0.875870
F88	F	2.151282	0.509536	1.375870
F89	F	1.665077	-0.198363	0.215953
F90	F	2.165077	0.301637	0.715953
F91	F	1.363044	-0.444365	0.176774
F92	F	1.863044	0.055635	0.676774
F93	F	1.721734	-0.410940	0.223299
F94	F	2.221734	0.089060	0.723299
H95	H	1.498714	-0.021994	0.765873
H96	H	1.998714	0.478006	1.265873
H97	H	1.337915	-0.219297	0.173520
H98	H	1.837915	0.280703	0.673520
F99	F	1.651207	0.009525	0.389770
F100	F	2.151207	0.509525	0.889770
F101	F	1.651226	0.009526	0.552435
F102	F	2.151226	0.509526	1.052435
H103	H	1.094812	0.180706	0.086466
H104	H	1.594812	0.680706	0.586466
H105	H	1.498699	-0.022001	0.622910
H106	H	1.998699	0.477999	1.122910
H107	H	1.393563	0.327261	0.995282
H108	H	1.893563	0.827261	1.495282
F109	F	1.651283	0.009531	1.038531
F110	F	2.151283	0.509531	1.538531
H111	H	1.393546	0.327261	0.852319
H112	H	1.893546	0.827261	1.352319
H113	H	1.529481	0.379276	0.769834
H114	H	2.029481	0.879276	1.269834
F115	F	0.949725	0.176972	0.325449
F116	F	1.449725	0.676972	0.825449
H117	H	1.529432	0.379273	0.626876
H118	H	2.029432	0.879273	1.126876
F119	F	1.376877	0.347726	0.516882
F120	F	1.876877	0.847726	1.016882
