data_functionalizedCrystal
_audit_creation_method	'MofGen! by Chris Wilmer'
_symmetry_space_group_name_H-M	'P1'
_symmetry_Int_Tables_number	1
_symmetry_cell_setting	triclinic
loop_
_symmetry_equiv_pos_as_xyz
  x,y,z
_cell_length_a	13.897447
_cell_length_b	13.897449
_cell_length_c	16.959447
_cell_angle_alpha	89.983048
_cell_angle_beta	89.971904
_cell_angle_gamma	90.020357
loop_
_atom_site_label
_atom_site_type_symbol
_atom_site_fract_x
_atom_site_fract_y
_atom_site_fract_z
Zn1	Zn	-0.383975	1.474629	-0.446976
Zn2	Zn	0.116025	1.974629	0.053024
Zn3	Zn	-0.545293	1.474536	-0.314803
Zn4	Zn	-0.045293	1.974536	0.185197
Zn5	Zn	-0.384016	1.313336	-0.314808
Zn6	Zn	0.115984	1.813336	0.185192
Zn7	Zn	-0.545232	1.313295	-0.446936
Zn8	Zn	-0.045232	1.813295	0.053064
O9	O	-0.464629	1.393949	-0.380881
O10	O	0.035371	1.893949	0.119119
O11	O	-0.405382	1.609598	-0.429458
O12	O	0.094618	2.109598	0.070542
O13	O	-0.523942	1.453131	-0.204193
O14	O	-0.023942	1.953131	0.295807
O15	O	-0.249029	1.334788	-0.332359
O16	O	0.250971	1.834788	0.167641
O17	O	-0.523902	1.609530	-0.332351
O18	O	-0.023902	2.109530	0.167649
O19	O	-0.248998	1.453290	-0.429463
O20	O	0.251002	1.953290	0.070537
O21	O	-0.405452	1.334698	-0.204196
O22	O	0.094548	1.834698	0.295804
O23	O	-0.405393	1.178349	-0.332320
O24	O	0.094607	1.678349	0.167680
O25	O	-0.523798	1.334718	-0.557552
O26	O	-0.023798	1.834718	-0.057552
O27	O	-0.523838	1.178319	-0.429393
O28	O	-0.023838	1.678319	0.070607
O29	O	-0.405323	1.453249	-0.557582
O30	O	0.094677	1.953249	-0.057582
O31	O	-0.680266	1.453091	-0.332312
O32	O	-0.180266	1.953091	0.167688
O33	O	-0.680221	1.334627	-0.429389
O34	O	-0.180221	1.834627	0.070611
C35	C	-0.464614	1.143335	-0.380853
C36	C	0.035386	1.643335	0.119147
C37	C	-0.464631	1.036121	-0.380860
C38	C	0.035369	1.536121	0.119140
C39	C	-0.464634	0.949051	-0.380873
C40	C	0.035366	1.449051	0.119127
C41	C	-0.464641	0.839818	-0.380897
C42	C	0.035359	1.339818	0.119103
C43	C	-0.715243	1.393871	-0.380862
C44	C	-0.215243	1.893871	0.119138
C45	C	-0.822457	1.393925	-0.380881
C46	C	-0.322457	1.893925	0.119119
C47	C	-0.909527	1.393972	-0.380899
C48	C	-0.409527	1.893972	0.119101
C49	C	-1.018759	1.394040	-0.380919
C50	C	-0.518759	1.894040	0.119081
C51	C	-0.213036	1.394054	-0.380916
C52	C	0.286964	1.894054	0.119084
C53	C	-0.105822	1.394099	-0.380932
C54	C	0.394178	1.894099	0.119068
C55	C	-0.464549	1.393989	-0.587049
C56	C	0.035451	1.893989	-0.087049
C57	C	-0.464515	1.394006	-0.674906
C58	C	0.035485	1.894006	-0.174906
C59	C	-0.464644	1.645542	-0.380909
C60	C	0.035356	2.145542	0.119091
C61	C	-0.464651	1.752756	-0.380921
C62	C	0.035349	2.252756	0.119079
C63	C	-0.526097	1.332407	-1.046368
C64	C	-0.026097	1.832407	-0.546368
C65	C	-0.402729	1.455836	-1.046395
C66	C	0.097271	1.955836	-0.546395
C67	C	-0.402749	1.455810	-0.963849
C68	C	0.097251	1.955810	-0.463849
C69	C	-0.464446	1.394083	-0.922559
C70	C	0.035554	1.894083	-0.422559
C71	C	-0.526122	1.332382	-0.963815
C72	C	-0.026122	1.832382	-0.463815
C73	C	-0.341081	1.517517	-0.922587
C74	C	0.158919	2.017517	-0.422587
C75	C	-0.341100	1.517494	-0.840036
C76	C	0.158900	2.017494	-0.340036
C77	C	-0.402792	1.455762	-0.798744
C78	C	0.097208	1.955762	-0.298744
C79	C	-0.464470	1.394057	-0.840005
C80	C	0.035530	1.894057	-0.340005
C81	C	-0.526167	1.332331	-0.798715
C82	C	-0.026167	1.832331	-0.298715
C83	C	-0.587840	1.270621	-0.839975
C84	C	-0.087840	1.770621	-0.339975
C85	C	-0.587814	1.270649	-0.922523
C86	C	-0.087814	1.770649	-0.422523
C87	C	-0.402818	1.455733	-0.716196
C88	C	0.097182	1.955733	-0.216196
C89	C	-0.526191	1.332305	-0.716162
C90	C	-0.026191	1.832305	-0.216162
C91	C	-0.464639	1.393964	-0.175514
C92	C	0.035361	1.893964	0.324486
C93	C	-0.464401	1.394134	-0.087658
C94	C	0.035599	1.894134	0.412342
H95	H	-0.638078	1.220367	-0.806346
H96	H	-0.138078	1.720367	-0.306346
H97	H	-0.576308	1.282162	-1.079965
H98	H	-0.076308	1.782162	-0.579965
H99	H	-0.576424	1.282030	-0.682549
H100	H	-0.076424	1.782030	-0.182549
H101	H	-0.352504	1.506096	-1.080018
H102	H	0.147496	2.006096	-0.580018
N103	N	-0.274575	1.584035	-0.795533
N104	N	0.225425	2.084035	-0.295533
H105	H	-0.313783	1.628708	-0.761273
H106	H	0.186217	2.128708	-0.261273
H107	H	-0.235498	1.623078	-0.834264
H108	H	0.264502	2.123078	-0.334264
H109	H	-0.638029	1.220412	-0.956124
H110	H	-0.138029	1.720412	-0.456124
N111	N	-0.274546	1.584095	-0.967118
N112	N	0.225454	2.084095	-0.467118
H113	H	-0.283887	1.574743	-1.025672
H114	H	0.216113	2.074743	-0.525672
H115	H	-0.205659	1.569110	-0.952701
H116	H	0.294341	2.069110	-0.452701
N117	N	-0.336315	1.522289	-0.671693
N118	N	0.163685	2.022289	-0.171693
H119	H	-0.297232	1.561401	-0.710377
H120	H	0.202768	2.061401	-0.210377
H121	H	-0.291679	1.483037	-0.637452
H122	H	0.208321	1.983037	-0.137452
