data_functionalizedCrystal
_audit_creation_method	'MofGen! by Chris Wilmer'
_symmetry_space_group_name_H-M	'P1'
_symmetry_Int_Tables_number	1
_symmetry_cell_setting	triclinic
loop_
_symmetry_equiv_pos_as_xyz
  x,y,z
_cell_length_a	19.077105
_cell_length_b	10.686285
_cell_length_c	10.686551
_cell_angle_alpha	99.084519
_cell_angle_beta	96.860985
_cell_angle_gamma	83.162422
loop_
_atom_site_label
_atom_site_type_symbol
_atom_site_fract_x
_atom_site_fract_y
_atom_site_fract_z
Zn1	Zn	1.130910	-0.525943	0.754616
Zn2	Zn	1.130853	-0.754519	0.526110
Zn3	Zn	1.004094	-0.533799	0.533900
Zn4	Zn	1.020967	-0.730773	0.730967
O5	O	1.071706	-0.636258	0.636398
O6	O	1.229964	-0.562914	0.730942
O7	O	1.106953	-0.738465	0.349040
O8	O	1.013879	-0.354662	0.576336
O9	O	1.229922	-0.730847	0.563060
O10	O	1.107050	-0.348890	0.738495
O11	O	1.013823	-0.576303	0.354762
O12	O	0.907271	-0.553278	0.553404
O13	O	1.042637	-0.690376	0.912208
O14	O	0.919668	-0.697994	0.698188
O15	O	1.123412	-0.539888	0.929583
O16	O	1.123314	-0.929463	0.540128
O17	O	1.042581	-0.912017	0.690635
C18	C	0.887784	-0.623912	0.624076
C19	C	0.809104	-0.618659	0.618832
C20	C	1.084793	-0.966917	0.611999
C21	C	1.090458	-1.108375	0.601608
C22	C	0.778612	-0.691669	0.691613
C23	C	0.704683	-0.686716	0.686693
C24	C	0.661247	-0.608759	0.608985
C25	C	0.691744	-0.535741	0.536201
C26	C	0.765671	-0.540688	0.541129
C27	C	0.439453	-0.585863	0.586186
C28	C	0.365521	-0.580925	0.581261
C29	C	0.378466	-0.731899	0.731755
C30	C	0.452394	-0.736845	0.736670
C31	C	0.482884	-0.663822	0.663892
N32	N	0.585680	-0.603698	0.603951
N33	N	0.558450	-0.668877	0.668933
C34	C	1.256346	-0.648653	0.648770
C35	C	1.335029	-0.653935	0.654042
C36	C	1.084913	-0.611607	0.968368
C37	C	1.090541	-0.601102	1.109833
C38	C	1.058589	-0.304307	0.660922
C39	C	1.052999	-0.162850	0.671373
C40	C	1.058588	-0.660724	0.305730
C41	C	1.053083	-0.670880	0.164301
H42	H	0.813973	-0.755155	0.754887
H43	H	0.679861	-0.746170	0.745958
C44	C	1.209523	-1.161948	0.544860
C45	C	1.139613	-1.191479	0.510228
H46	H	1.239870	-1.213242	0.488443
H47	H	1.224095	-1.177985	0.629492
H48	H	1.212016	-1.074592	0.540112
H49	H	1.137119	-1.278834	0.514986
H50	H	1.125037	-1.175452	0.425575
H51	H	0.656372	-0.472260	0.472935
C52	C	1.043980	-0.999820	0.852773
C53	C	1.003860	-1.079725	0.762754
H54	H	1.013642	-0.948503	0.909192
H55	H	1.066713	-0.946700	0.810395
H56	H	1.078786	-1.050072	0.899797
H57	H	0.969057	-1.029472	0.715723
H58	H	0.981114	-1.132851	0.805136
C59	C	0.274820	-0.570066	0.405902
C60	C	0.317764	-0.495202	0.495876
H61	H	0.245338	-0.517141	0.353198
H62	H	0.246094	-0.612855	0.448542
H63	H	0.303907	-0.630963	0.354931
H64	H	0.288677	-0.434310	0.546853
H65	H	0.346493	-0.452392	0.453232
H66	H	1.126918	-0.533331	1.171425
H67	H	1.016708	-0.738664	1.102701
C68	C	0.457761	-0.885572	0.884942
C69	C	0.500137	-0.822535	0.822094
H70	H	0.487237	-0.938470	0.937681
H71	H	0.428635	-0.936357	0.823902
H72	H	0.428678	-0.824635	0.935883
H73	H	0.529215	-0.883472	0.771145
H74	H	0.529274	-0.771746	0.883142
C75	C	0.302873	-0.731561	0.896066
C76	C	0.344948	-0.812147	0.811764
H77	H	0.282185	-0.781104	0.945469
H78	H	0.266429	-0.684442	0.849075
H79	H	0.331476	-0.674499	0.950839
H80	H	0.316344	-0.869203	0.756984
H81	H	0.381397	-0.859288	0.858759
C82	C	0.419222	-0.436137	0.436938
C83	C	0.472961	-0.505599	0.506186
H84	H	0.439912	-0.386587	0.387544
H85	H	0.390678	-0.381501	0.494137
H86	H	0.390637	-0.493219	0.382152
H87	H	0.501543	-0.448516	0.560979
H88	H	0.501517	-0.560239	0.448981
H89	H	0.790496	-0.481228	0.481870
