data_functionalizedCrystal
_audit_creation_method	'MofGen! by Chris Wilmer'
_symmetry_space_group_name_H-M	'P1'
_symmetry_Int_Tables_number	1
_symmetry_cell_setting	triclinic
loop_
_symmetry_equiv_pos_as_xyz
  x,y,z
_cell_length_a	6.817900
_cell_length_b	13.466082
_cell_length_c	16.015572
_cell_angle_alpha	76.617543
_cell_angle_beta	104.485554
_cell_angle_gamma	111.116375
loop_
_atom_site_label
_atom_site_type_symbol
_atom_site_fract_x
_atom_site_fract_y
_atom_site_fract_z
V1	V	-4.003243	-0.042892	-0.269622
O2	O	-3.950138	0.109325	-0.263680
O3	O	-3.994416	-0.188210	-0.268558
O4	O	-3.926566	0.004833	-0.386859
O5	O	-4.018458	-0.085055	-0.144560
V6	V	-4.485407	-0.030246	-0.254569
O7	O	-4.267482	-0.070632	-0.302643
O8	O	-4.671365	-0.002507	-0.221549
O9	O	-4.271027	0.115072	-0.255634
O10	O	-4.655909	-0.182463	-0.260512
O11	O	-4.587589	0.011916	-0.379632
O12	O	-4.338878	-0.077972	-0.137333
C13	C	-3.849959	-0.225106	-0.264505
C14	C	-3.923841	-0.343603	-0.264416
C15	C	-3.697496	-0.558781	-0.255567
C16	C	-3.766904	-0.670119	-0.255483
C17	C	-4.132064	-0.677619	-0.264157
C18	C	-4.062655	-0.566281	-0.264241
C19	C	-3.845367	-0.506866	-0.259948
C20	C	-3.775961	-0.395525	-0.260038
C21	C	-4.141118	-0.403028	-0.268706
C22	C	-4.210526	-0.514366	-0.268621
C23	C	-3.763408	0.021141	-0.415409
C24	C	-3.782262	0.059200	-0.511255
C25	C	-4.162890	-0.278613	-0.890696
C26	C	-4.180601	-0.242816	-0.980754
C27	C	-4.053178	-0.057615	-0.955056
C28	C	-4.035446	-0.093396	-0.864994
C29	C	-4.090308	-0.203896	-0.832821
C30	C	-3.962865	-0.018679	-0.807119
C31	C	-3.945145	-0.054458	-0.717065
C32	C	-4.000007	-0.164954	-0.684886
C33	C	-4.072589	-0.239675	-0.742767
C34	C	-3.908018	0.091820	-0.839294
C35	C	-3.835436	0.166537	-0.781419
C36	C	-3.817701	0.130758	-0.691363
C37	C	-3.872563	0.020263	-0.659184
C38	C	-3.745119	0.205479	-0.633481
C39	C	-3.727400	0.169700	-0.543428
C40	C	-3.854844	-0.015517	-0.569130
C41	C	-4.078829	0.151961	-0.259684
C42	C	-3.984184	0.270459	-0.259779
C43	C	-4.165379	-0.094284	-0.108778
C44	C	-4.125763	-0.132339	-0.012931
H45	H	-3.599037	-0.347149	-0.256547
H46	H	-4.261523	-0.360747	-0.272275
H47	H	-3.899490	-0.105496	-0.542933
H48	H	-4.387443	-0.562758	-0.272115
C49	C	-3.775495	0.286544	-0.816222
C50	C	-3.560495	0.337118	-0.782384
C51	C	-3.505207	0.447672	-0.814411
H52	H	-3.796246	0.297310	-0.878135
H53	H	-3.863068	0.316469	-0.798973
H54	H	-3.472948	0.307203	-0.799639
H55	H	-3.539691	0.326383	-0.720474
H56	H	-3.592781	0.477597	-0.797162
H57	H	-3.525970	0.458427	-0.876323
H58	H	-3.359332	0.482002	-0.791451
C59	C	-3.685198	0.325485	-0.668287
C60	C	-3.470200	0.376072	-0.634455
C61	C	-3.414940	0.486624	-0.666487
H62	H	-3.705959	0.336248	-0.730200
H63	H	-3.772779	0.355404	-0.651036
H64	H	-3.382645	0.346163	-0.651712
H65	H	-3.449386	0.365340	-0.572546
H66	H	-3.502521	0.516543	-0.649236
H67	H	-3.435713	0.497376	-0.728399
H68	H	-3.269066	0.520963	-0.643531
C69	C	-4.131306	-0.359632	-0.707808
C70	C	-4.001455	-0.403177	-0.733314
C71	C	-4.055233	-0.513654	-0.701074
H72	H	-4.110100	-0.370232	-0.645889
H73	H	-4.277084	-0.394440	-0.730571
H74	H	-3.855712	-0.368380	-0.710547
H75	H	-4.022642	-0.392606	-0.795228
H76	H	-4.201011	-0.548462	-0.723837
H77	H	-4.034025	-0.524243	-0.639156
H78	H	-3.967152	-0.543215	-0.718382
H79	H	-3.985582	-0.194084	-0.611558
C80	C	-4.259358	-0.324111	-1.043448
C81	C	-4.303565	-0.428535	-0.995992
C82	C	-4.376104	-0.503449	-1.053715
H83	H	-4.385749	-0.316449	-1.081955
H84	H	-4.152154	-0.311764	-1.076281
H85	H	-4.410761	-0.440878	-0.963174
H86	H	-4.177205	-0.436232	-0.957488
H87	H	-4.268900	-0.491102	-1.086548
H88	H	-4.502490	-0.495777	-1.092219
H89	H	-4.406089	-0.574308	-1.021525
H90	H	-4.207537	-0.368592	-0.864499
C91	C	-4.368078	-0.741970	-0.268956
C92	C	-4.485631	-0.702571	-0.346184
C93	C	-4.703059	-0.761812	-0.350630
H94	H	-4.388556	-0.815730	-0.268327
H95	H	-4.415362	-0.735104	-0.220215
H96	H	-4.438364	-0.709447	-0.394912
H97	H	-4.465218	-0.628820	-0.346830
H98	H	-4.750342	-0.754946	-0.301889
H99	H	-4.723514	-0.835568	-0.349998
H100	H	-4.782847	-0.735082	-0.403024
C101	C	-3.993614	0.062311	-0.990158
C102	C	-4.024618	0.077657	-1.081410
C103	C	-3.969733	0.188119	-1.113772
H104	H	-4.081216	0.092314	-0.973033
H105	H	-3.847721	0.096829	-0.967345
H106	H	-4.170486	0.043153	-1.104214
H107	H	-3.937019	0.047679	-1.098558
H108	H	-3.823840	0.222637	-1.090960
H109	H	-4.057341	0.218112	-1.096641
H110	H	-3.990743	0.198546	-1.175689
H111	H	-3.520575	-0.510402	-0.252082
H112	H	-3.922418	0.120949	-0.912621
H113	H	-3.646489	-0.712383	-0.251920
C114	C	-3.648872	0.250929	-0.480691
C115	C	-3.786963	0.312121	-0.499018
C116	C	-3.714684	0.386969	-0.441249
H117	H	-3.646185	0.213928	-0.422421
H118	H	-3.508856	0.297210	-0.487356
H119	H	-3.926942	0.265846	-0.492345
H120	H	-3.789666	0.349146	-0.557277
H121	H	-3.574668	0.433250	-0.447914
H122	H	-3.711999	0.349958	-0.382983
H123	H	-3.808355	0.428503	-0.453681
