data_functionalizedCrystal
_audit_creation_method	'MofGen! by Chris Wilmer'
_symmetry_space_group_name_H-M	'P1'
_symmetry_Int_Tables_number	1
_symmetry_cell_setting	triclinic
loop_
_symmetry_equiv_pos_as_xyz
  x,y,z
_cell_length_a	6.817900
_cell_length_b	11.102288
_cell_length_c	11.168152
_cell_angle_alpha	91.983401
_cell_angle_beta	108.508980
_cell_angle_gamma	108.605689
loop_
_atom_site_label
_atom_site_type_symbol
_atom_site_fract_x
_atom_site_fract_y
_atom_site_fract_z
V1	V	-4.110392	-0.175858	-0.393699
O2	O	-4.069446	0.008431	-0.386205
O3	O	-4.087176	-0.348678	-0.391007
O4	O	-4.086676	-0.173162	-0.565405
O5	O	-4.069950	-0.168301	-0.210599
V6	V	-4.587558	-0.153814	-0.371799
O7	O	-4.385594	-0.224214	-0.441739
O8	O	-4.762552	-0.105459	-0.323759
O9	O	-4.387566	0.019006	-0.374492
O10	O	-4.745900	-0.338103	-0.379294
O11	O	-4.745396	-0.161372	-0.554899
O12	O	-4.388067	-0.156511	-0.200093
C13	C	-3.937505	-0.390808	-0.384796
C14	C	-3.999976	-0.532091	-0.383739
C15	C	-4.213314	-0.604939	-0.389542
C16	C	-4.272004	-0.737691	-0.388559
C17	C	-3.903995	-0.724732	-0.375964
C18	C	-3.845312	-0.591984	-0.376957
C19	C	-3.936865	-0.166918	-0.607257
C20	C	-3.998925	-0.165857	-0.747627
C21	C	-3.851737	-0.159356	-0.804099
C22	C	-3.915875	-0.158259	-0.949179
C23	C	-4.201219	-0.162759	-0.158235
C24	C	-4.118396	-0.163814	-0.017863
C25	C	-4.200580	0.061129	-0.380699
C26	C	-4.117349	0.202410	-0.381764
H27	H	-4.445721	-0.796999	-0.393287
Cl28	Cl	-3.583870	-0.152027	-0.712927
Cl29	Cl	-3.709573	-0.800035	-0.367429
Cl30	Cl	-3.721463	-0.149653	-1.024184
Cl31	Cl	-4.312809	-0.172400	-0.942863
Cl32	Cl	-3.577097	-0.500398	-0.369669
H33	H	-4.339254	-0.556178	-0.395064
Cl34	Cl	-4.266804	-0.173206	-0.838803
