data_functionalizedCrystal
_audit_creation_method	'MofGen! by Chris Wilmer'
_symmetry_space_group_name_H-M	'P1'
_symmetry_Int_Tables_number	1
_symmetry_cell_setting	triclinic
loop_
_symmetry_equiv_pos_as_xyz
  x,y,z
_cell_length_a	16.992694
_cell_length_b	26.809956
_cell_length_c	16.992700
_cell_angle_alpha	89.997521
_cell_angle_beta	89.332302
_cell_angle_gamma	90.003736
loop_
_atom_site_label
_atom_site_type_symbol
_atom_site_fract_x
_atom_site_fract_y
_atom_site_fract_z
O1	O	1.050855	0.041430	-0.166906
O2	O	1.550855	0.541430	0.333094
O3	O	0.822455	0.041445	-0.165075
O4	O	1.322455	0.541445	0.334925
O5	O	0.935740	0.041425	-0.051790
O6	O	1.435740	0.541425	0.448210
O7	O	0.937569	0.041450	-0.280190
O8	O	1.437569	0.541450	0.219810
O9	O	0.935718	-0.041534	-0.051807
O10	O	1.435718	0.458466	0.448193
O11	O	0.822433	-0.041514	-0.165092
O12	O	1.322433	0.458486	0.334908
O13	O	1.050833	-0.041529	-0.166923
O14	O	1.550833	0.458471	0.333077
Zn15	Zn	0.936629	-0.054693	-0.166010
Zn16	Zn	1.436629	0.445307	0.333990
Zn17	Zn	0.936658	0.054609	-0.165988
Zn18	Zn	1.436658	0.554609	0.334012
O19	O	0.937547	-0.041509	-0.280207
O20	O	1.437547	0.458491	0.219793
C21	C	0.793084	-0.000033	-0.162727
C22	C	1.293084	0.499967	0.337273
C23	C	0.705599	-0.000028	-0.155699
C24	C	1.205599	0.499972	0.344301
N25	N	0.936616	-0.129289	-0.166025
N26	N	1.436616	0.370711	0.333975
C27	C	0.659608	-0.000021	-0.223517
C28	C	1.159608	0.499979	0.276483
C29	C	0.577407	-0.000029	-0.216908
C30	C	1.077407	0.499971	0.283092
C31	C	0.541199	-0.000040	-0.142480
C32	C	1.041199	0.499960	0.357520
C33	C	0.587197	-0.000048	-0.074657
C34	C	1.087197	0.499952	0.425343
C35	C	0.669396	-0.000044	-0.081267
C36	C	1.169396	0.499956	0.418733
C37	C	0.295885	-0.000056	-0.115086
C38	C	0.795885	0.499944	0.384914
C39	C	0.213680	-0.000059	-0.108481
C40	C	0.713680	0.499941	0.391519
C41	C	0.203896	-0.000040	-0.250732
C42	C	0.703896	0.499960	0.249268
C43	C	0.286097	-0.000033	-0.257335
C44	C	0.786097	0.499967	0.242665
C45	C	0.332087	-0.000044	-0.189512
C46	C	0.832087	0.499956	0.310488
N47	N	0.457177	-0.000046	-0.135723
N48	N	0.957177	0.499954	0.364277
N49	N	0.416108	-0.000041	-0.196270
N50	N	0.916108	0.499959	0.303730
C51	C	0.986815	-0.473924	-0.115838
C52	C	1.486815	0.026076	0.384162
C53	C	0.986833	-0.682802	-0.115827
C54	C	1.486833	-0.182802	0.384173
O55	O	1.029482	-0.709813	-0.073159
O56	O	1.529482	-0.209813	0.426841
N57	N	0.936661	-0.708916	-0.165970
N58	N	1.436661	-0.208916	0.334030
C59	C	0.886478	-0.682808	-0.216116
C60	C	1.386478	-0.182808	0.283884
O61	O	0.843799	-0.709813	-0.258760
O62	O	1.343799	-0.209813	0.241240
C63	C	0.886457	-0.473932	-0.216123
C64	C	1.386457	0.026068	0.283877
C65	C	0.936637	-0.447820	-0.165982
C66	C	1.436637	0.052180	0.334018
C67	C	1.036990	-0.447812	-0.065701
C68	C	1.536990	0.052188	0.434299
C69	C	1.036989	-0.395596	-0.065707
C70	C	1.536989	0.104404	0.434293
C71	C	0.986811	-0.369491	-0.115851
C72	C	1.486811	0.130509	0.384149
C73	C	0.936635	-0.395603	-0.165988
C74	C	1.436635	0.104397	0.334012
C75	C	0.836270	-0.447824	-0.266264
C76	C	1.336270	0.052176	0.233736
C77	C	0.836268	-0.395602	-0.266259
C78	C	1.336268	0.104398	0.233741
C79	C	0.886448	-0.369490	-0.216119
C80	C	1.386448	0.130510	0.283881
C81	C	0.886456	-0.317283	-0.216138
C82	C	1.386456	0.182717	0.283862
N83	N	0.936627	-0.291168	-0.165995
N84	N	1.436627	0.208832	0.334005
C85	C	0.986805	-0.317273	-0.115851
C86	C	1.486805	0.182727	0.384149
C87	C	0.886494	-0.792472	-0.216111
C88	C	1.386494	-0.292472	0.283889
C89	C	0.886500	-0.844691	-0.216110
C90	C	1.386500	-0.344691	0.283890
C91	C	0.986854	-0.844680	-0.115820
C92	C	1.486854	-0.344680	0.384180
C93	C	0.986851	-0.792461	-0.115825
C94	C	1.486851	-0.292461	0.384175
C95	C	0.936665	-0.766357	-0.165967
C96	C	1.436665	-0.266357	0.334033
C97	C	0.986797	-0.207615	-0.115868
C98	C	1.486797	0.292385	0.384132
C99	C	0.986793	-0.155394	-0.115881
C100	C	1.486793	0.344606	0.384119
C101	C	0.886437	-0.155408	-0.216168
C102	C	1.386437	0.344592	0.283832
C103	C	0.886444	-0.207625	-0.216159
C104	C	1.386444	0.292375	0.283841
C105	C	0.936626	-0.233726	-0.166002
C106	C	1.436626	0.266274	0.333998
O107	O	0.843822	-0.290239	-0.258777
O108	O	1.343822	0.209761	0.241223
O109	O	1.029465	-0.290259	-0.073201
O110	O	1.529465	0.209741	0.426799
C111	C	0.986817	-0.526140	-0.115832
C112	C	1.486817	-0.026140	0.384168
C113	C	0.936641	-0.552252	-0.165969
C114	C	1.436641	-0.052252	0.334031
C115	C	0.886463	-0.526148	-0.216113
C116	C	1.386463	-0.026148	0.283887
C117	C	0.936647	-0.604471	-0.165969
C118	C	1.436647	-0.104471	0.334031
C119	C	0.986825	-0.630576	-0.115825
C120	C	1.486825	-0.130576	0.384175
C121	C	1.036996	-0.604461	-0.065682
C122	C	1.536996	-0.104461	0.434318
C123	C	1.036994	-0.552245	-0.065688
C124	C	1.536994	-0.052245	0.434312
C125	C	0.836292	-0.552262	-0.266256
C126	C	1.336292	-0.052262	0.233744
C127	C	0.836298	-0.604479	-0.266246
C128	C	1.336298	-0.104479	0.233754
C129	C	0.886476	-0.630583	-0.216103
C130	C	1.386476	-0.130583	0.283897
C131	C	1.080204	-0.000050	-0.169270
C132	C	1.580204	0.499950	0.330730
C133	C	1.167688	-0.000052	-0.176299
C134	C	1.667688	0.499948	0.323701
C135	C	0.933374	-0.000057	-0.022439
C136	C	1.433374	0.499943	0.477561
C137	C	0.926346	-0.000063	0.065046
C138	C	1.426346	0.499937	0.565046
N139	N	0.936678	0.129205	-0.165967
N140	N	1.436678	0.629205	0.334033
C141	C	0.939914	-0.000026	-0.309559
C142	C	1.439914	0.499974	0.190441
C143	C	0.946942	-0.000017	-0.397043
C144	C	1.446942	0.499983	0.102957
C145	C	0.879124	-0.000014	0.556965
C146	C	1.379124	0.499986	1.056965
C147	C	0.885734	-0.000020	0.474764
C148	C	1.385734	0.499980	0.974764
C149	C	0.960162	-0.000031	0.438557
C150	C	1.460162	0.499969	0.938557
C151	C	1.027984	-0.000032	0.484555
C152	C	1.527984	0.499968	0.984555
C153	C	1.021374	-0.000023	0.566754
C154	C	1.521374	0.499977	1.066754
C155	C	0.987558	-0.000055	0.193243
C156	C	1.487558	0.499945	0.693243
C157	C	0.994163	-0.000065	0.111038
C158	C	1.494163	0.499935	0.611038
C159	C	0.851912	-0.000052	0.101253
C160	C	1.351912	0.499948	0.601253
C161	C	0.845308	-0.000046	0.183454
C162	C	1.345308	0.499954	0.683454
C163	C	0.913131	-0.000045	0.229445
C164	C	1.413131	0.499955	0.729445
N165	N	0.966919	-0.000038	0.354535
N166	N	1.466919	0.499962	0.854535
N167	N	0.906372	-0.000034	0.313465
N168	N	1.406372	0.499966	0.813465
H169	H	0.689081	-0.000012	-0.284123
H170	H	1.189081	0.499988	0.215877
Br171	Br	0.164541	-0.000084	-0.007465
Br172	Br	0.664541	0.499916	0.492535
Br173	Br	0.744295	-0.000030	0.232586
Br174	Br	1.244295	0.499970	0.732586
H175	H	0.795437	-0.625735	-0.307084
H176	H	1.295437	-0.125735	0.192916
Br177	Br	0.358291	-0.000073	-0.023039
Br178	Br	0.858291	0.499927	0.476961
H179	H	0.818517	-0.000011	0.586438
H180	H	1.318517	0.499989	1.086438
Br181	Br	1.054903	-0.243030	-0.047798
Br182	Br	1.554903	0.256970	0.452202
H183	H	0.796695	-0.000052	0.063798
H184	H	1.296695	0.499948	0.563798
H185	H	0.830509	-0.000016	0.437320
H186	H	1.330509	0.499984	0.937320
Br187	Br	1.113416	-0.000022	0.629173
Br188	Br	1.613416	0.499978	1.129173
H189	H	1.027712	-0.771203	-0.074995
H190	H	1.527712	-0.271203	0.425005
Br191	Br	1.105096	-0.483231	0.002362
Br192	Br	1.605096	0.016769	0.502362
H193	H	0.315571	-0.000018	-0.317942
H194	H	0.815571	0.499982	0.182058
Br195	Br	1.095179	-0.000098	0.061900
Br196	Br	1.595179	0.499902	0.561900
Br197	Br	0.514992	-0.000017	-0.308951
Br198	Br	1.014992	0.499983	0.191049
Br199	Br	1.079604	-0.000057	0.255649
Br200	Br	1.579604	0.499943	0.755649
H201	H	1.088585	-0.000043	0.455069
H202	H	1.588585	0.499957	0.955069
H203	H	1.027659	-0.134135	-0.075051
H204	H	1.527659	0.365865	0.424949
H205	H	0.166442	-0.000032	-0.305950
H206	H	0.666442	0.499968	0.194050
H207	H	0.557710	-0.000065	-0.014056
H208	H	1.057710	0.499935	0.485944
Br209	Br	0.731814	-0.000058	0.010776
Br210	Br	1.231814	0.499942	0.510776
H211	H	1.077847	-0.374339	-0.024876
H212	H	1.577847	0.125661	0.475124
H213	H	0.845647	-0.865947	-0.256948
H214	H	1.345647	-0.365947	0.243052
Br215	Br	1.054952	-0.880118	-0.047769
Br216	Br	1.554952	-0.380118	0.452231
Br217	Br	0.768151	-0.360179	-0.334311
Br218	Br	1.268151	0.139821	0.165689
Br219	Br	0.768165	-0.483251	-0.334315
Br220	Br	1.268165	0.016749	0.165685
Br221	Br	0.818351	-0.243061	-0.284220
Br222	Br	1.318351	0.256939	0.215780
Br223	Br	0.818380	-0.757051	-0.284168
Br224	Br	1.318380	-0.257051	0.215832
H225	H	1.077856	-0.625724	-0.024856
H226	H	1.577856	-0.125724	0.475144
Br227	Br	0.818343	-0.119973	-0.284221
Br228	Br	1.318343	0.380027	0.215779
H229	H	0.795430	-0.531012	-0.307088
H230	H	1.295430	-0.031012	0.192912
H231	H	1.077856	-0.530988	-0.024859
H232	H	1.577856	-0.030988	0.475141
