data_functionalizedCrystal
_audit_creation_method	'MofGen! by Chris Wilmer'
_symmetry_space_group_name_H-M	'P1'
_symmetry_Int_Tables_number	1
_symmetry_cell_setting	triclinic
loop_
_symmetry_equiv_pos_as_xyz
  x,y,z
_cell_length_a	6.817900
_cell_length_b	11.102288
_cell_length_c	14.125465
_cell_angle_alpha	94.635072
_cell_angle_beta	100.398878
_cell_angle_gamma	108.605689
loop_
_atom_site_label
_atom_site_type_symbol
_atom_site_fract_x
_atom_site_fract_y
_atom_site_fract_z
V1	V	-4.017267	-0.174747	-0.299976
O2	O	-3.978094	0.009521	-0.294266
O3	O	-3.994689	-0.347575	-0.297925
O4	O	-3.952937	-0.171566	-0.430807
O5	O	-4.020135	-0.167706	-0.160465
V6	V	-4.499614	-0.152765	-0.283290
O7	O	-4.281107	-0.222967	-0.336580
O8	O	-4.685971	-0.104545	-0.246686
O9	O	-4.298985	0.020063	-0.285341
O10	O	-4.656184	-0.337033	-0.289000
O11	O	-4.614143	-0.159806	-0.422802
O12	O	-4.340737	-0.155946	-0.152460
C13	C	-3.846487	-0.389722	-0.293193
C14	C	-3.909207	-0.531008	-0.292387
C15	C	-4.121173	-0.603840	-0.296809
C16	C	-4.180096	-0.736594	-0.296060
C17	C	-3.815066	-0.723671	-0.286463
C18	C	-3.756148	-0.590921	-0.287219
C19	C	-3.793227	-0.165204	-0.462695
C20	C	-3.822085	-0.163747	-0.569649
C21	C	-3.874978	-0.161075	-0.765472
C22	C	-4.061272	-0.166435	-0.817794
C23	C	-4.090704	-0.164948	-0.926756
C24	C	-3.845538	-0.162561	-0.656500
C25	C	-4.110531	0.062203	-0.290071
C26	C	-4.027048	0.203488	-0.290882
C27	C	-4.163791	-0.162312	-0.120566
C28	C	-4.114171	-0.163763	-0.013611
H29	H	-4.245807	-0.555063	-0.301016
H30	H	-3.583536	-0.531619	-0.283622
H31	H	-4.198664	-0.172154	-0.780755
C32	C	-3.519735	-0.040167	-0.775345
C33	C	-3.689524	-0.153378	-0.815471
H34	H	-3.405260	-0.035417	-0.806227
H35	H	-3.475311	-0.040178	-0.707628
H36	H	-3.563484	0.031875	-0.784983
H37	H	-3.645779	-0.225420	-0.805827
H38	H	-3.733952	-0.153378	-0.883205
C39	C	-4.478700	-0.771657	-0.220902
C40	C	-4.413093	-0.816646	-0.300911
H41	H	-4.622545	-0.821083	-0.223896
H42	H	-4.465505	-0.684032	-0.222098
H43	H	-4.392561	-0.779367	-0.162450
H44	H	-4.499222	-0.808928	-0.359363
H45	H	-4.426306	-0.904294	-0.299724
H46	H	-3.690458	-0.772468	-0.282254
