data_functionalizedCrystal
_audit_creation_method	'MofGen! by Chris Wilmer'
_symmetry_space_group_name_H-M	'P1'
_symmetry_Int_Tables_number	1
_symmetry_cell_setting	triclinic
loop_
_symmetry_equiv_pos_as_xyz
  x,y,z
_cell_length_a	9.130307
_cell_length_b	14.971486
_cell_length_c	14.971486
_cell_angle_alpha	96.385871
_cell_angle_beta	90.003505
_cell_angle_gamma	90.003437
loop_
_atom_site_label
_atom_site_type_symbol
_atom_site_fract_x
_atom_site_fract_y
_atom_site_fract_z
O1	O	0.121632	-1.186941	0.116561
O2	O	0.621632	-0.686941	0.616561
O3	O	0.121672	-0.926541	0.130520
O4	O	0.621672	-0.426541	0.630520
O5	O	0.121640	-1.063720	-0.006659
O6	O	0.621640	-0.563720	0.493341
O7	O	0.121663	-1.049762	0.253741
O8	O	0.621663	-0.549762	0.753741
O9	O	-0.121959	-1.063716	-0.006661
O10	O	0.378041	-0.563716	0.493339
O11	O	-0.121927	-0.926536	0.130519
O12	O	0.378073	-0.426536	0.630519
O13	O	-0.121967	-1.186937	0.116560
O14	O	0.378033	-0.686937	0.616560
Cu15	Cu	-0.144190	-1.056736	0.123539
Cu16	Cu	0.355810	-0.556736	0.623539
Cu17	Cu	0.143894	-1.056741	0.123541
Cu18	Cu	0.643894	-0.556741	0.623541
O19	O	-0.121936	-1.049757	0.253739
O20	O	0.378064	-0.549757	0.753739
C21	C	-0.000123	-0.893214	0.129895
C22	C	0.499877	-0.393214	0.629895
C23	C	-0.000108	-0.793917	0.128024
C24	C	0.499892	-0.293917	0.628024
N25	N	-0.346813	-1.056739	0.123538
N26	N	0.153187	-0.556739	0.623538
C27	C	-0.000159	-1.063094	-0.039985
C28	C	0.499841	-0.563094	0.460015
C29	C	-0.000157	-1.061223	-0.139282
C30	C	0.499843	-0.561223	0.360718
C31	C	-0.346831	-1.178261	0.002100
C32	C	0.153169	-0.678261	0.502100
C33	C	-0.423506	-1.239027	-0.058616
C34	C	0.076494	-0.739027	0.441384
C35	C	-0.576840	-1.239036	-0.058617
C36	C	-0.076840	-0.739036	0.441383
C37	C	-0.653501	-1.178270	0.002104
C38	C	-0.153501	-0.678270	0.502104
C39	C	-0.576825	-1.117503	0.062820
C40	C	-0.076825	-0.617503	0.562820
C41	C	-0.423488	-1.117503	0.062816
C42	C	0.076512	-0.617503	0.562816
C43	C	-0.576807	-0.995979	0.184251
C44	C	-0.076807	-0.495979	0.684251
C45	C	-0.423474	-0.995973	0.184258
C46	C	0.076526	-0.495973	0.684258
C47	C	-0.653469	-0.935213	0.244972
C48	C	-0.153469	-0.435213	0.744972
C49	C	-0.576793	-0.874449	0.305694
C50	C	-0.076793	-0.374449	0.805694
C51	C	-0.423450	-0.874443	0.305692
C52	C	0.076550	-0.374443	0.805692
C53	C	-0.346798	-0.935206	0.244974
C54	C	0.153202	-0.435206	0.744974
N55	N	0.346517	-1.056746	0.123535
N56	N	0.846517	-0.556746	0.623535
C57	C	-0.000170	-1.220263	0.117185
C58	C	0.499830	-0.720263	0.617185
C59	C	-0.000175	-1.319561	0.119056
C60	C	0.499825	-0.819561	0.619056
C61	C	-0.000103	-0.736692	0.208614
C62	C	0.499897	-0.236692	0.708614
C63	C	-0.000125	-0.643392	0.206850
C64	C	0.499875	-0.143392	0.706850
C65	C	-0.000141	-0.607320	0.124497
C66	C	0.499859	-0.107320	0.624497
C67	C	-0.000151	-0.664552	0.043902
C68	C	0.499849	-0.164552	0.543902
C69	C	-0.000139	-0.757850	0.045666
C70	C	0.499861	-0.257850	0.545666
C71	C	-0.000171	-0.470090	0.040231
C72	C	0.499829	0.029910	0.540231
C73	C	-0.000180	-0.376786	0.038466
C74	C	0.499820	0.123214	0.538466
C75	C	-0.000157	-0.355632	0.201415
C76	C	0.499843	0.144368	0.701415
C77	C	-0.000145	-0.448930	0.203179
C78	C	0.499855	0.051070	0.703179
C79	C	-0.000152	-0.506156	0.122584
C80	C	0.499848	-0.006156	0.622584
C81	C	-0.000171	-1.141812	-0.196507
C82	C	0.499829	-0.641812	0.303493
C83	C	-0.000156	-1.140049	-0.289807
C84	C	0.499844	-0.640049	0.210193
C85	C	-0.000138	-1.057696	-0.325879
C86	C	0.499862	-0.557696	0.174121
C87	C	-0.000120	-0.977101	-0.268646
C88	C	0.499880	-0.477101	0.231354
C89	C	-0.000124	-0.978865	-0.175349
C90	C	0.499876	-0.478865	0.324651
C91	C	-0.000114	-0.973430	-0.463109
C92	C	0.499886	-0.473430	0.036891
C93	C	-0.000112	-0.971665	-0.556413
C94	C	0.499888	-0.471665	-0.056413
C95	C	-0.000145	-1.134614	-0.577567
C96	C	0.499855	-0.634614	-0.077567
C97	C	-0.000150	-1.136378	-0.484269
C98	C	0.499850	-0.636378	0.015731
C99	C	-0.000135	-1.055782	-0.427043
C100	C	0.499865	-0.555782	0.072957
C101	C	-0.000134	-1.050384	0.287065
C102	C	0.499866	-0.550384	0.787065
C103	C	-0.000126	-1.052254	0.386362
C104	C	0.499874	-0.552254	0.886362
H105	H	-0.221978	-1.178267	0.002102
H106	H	0.278022	-0.678267	0.502102
F107	F	-0.000152	-0.294727	0.287192
F108	F	0.499848	0.205273	0.787192
H109	H	-0.000143	-0.804443	-0.019958
H110	H	0.499857	-0.304443	0.480042
F111	F	-0.658387	-0.809779	0.370304
F112	F	-0.158387	-0.309779	0.870304
H113	H	-0.778321	-0.935219	0.244965
H114	H	-0.278321	-0.435219	0.744965
H115	H	-0.000195	-0.347419	-0.028593
H116	H	0.499805	0.152581	0.471407
H117	H	-0.639269	-1.288515	-0.108060
H118	H	-0.139269	-0.788515	0.391940
H119	H	-0.000121	-0.904606	-0.585780
H120	H	0.499879	-0.404606	-0.085780
F121	F	-0.183607	-0.935209	0.244971
F122	F	0.316393	-0.435209	0.744971
F123	F	-0.000095	-0.887650	-0.402206
F124	F	0.499905	-0.387650	0.097794
H125	H	-0.000179	-0.516682	-0.025399
H126	H	0.499821	-0.016682	0.474601
F127	F	-0.816692	-1.178272	0.002091
F128	F	-0.316692	-0.678272	0.502091
F129	F	-0.000106	-0.893090	-0.114445
F130	F	0.499894	-0.393090	0.385555
F131	F	-0.000084	-0.889454	-0.307040
F132	F	0.499916	-0.389454	0.192960
F133	F	-0.000075	-0.775073	0.296267
F134	F	0.499925	-0.275073	0.796267
F135	F	-0.341911	-1.303694	-0.123239
F136	F	0.158089	-0.803694	0.376761
H137	H	-0.361029	-0.824956	0.355131
H138	H	0.138971	-0.324956	0.855131
F139	F	-0.000155	-1.220391	-0.638472
F140	F	0.499845	-0.720391	-0.138472
F141	F	-0.000113	-0.582492	0.292625
F142	F	0.499887	-0.082492	0.792625
H143	H	-0.000118	-0.478296	0.270239
H144	H	0.499882	0.021704	0.770239
H145	H	-0.000185	-0.635175	-0.023152
H146	H	0.499815	-0.135175	0.476848
H147	H	-0.000194	-1.208874	-0.167145
H148	H	0.499806	-0.708874	0.332855
F149	F	-0.000173	-1.225824	-0.350707
F150	F	0.499827	-0.725824	0.149293
H151	H	-0.000175	-1.203437	-0.454903
H152	H	0.499825	-0.703437	0.045097
