data_functionalizedCrystal
_audit_creation_method	'MofGen! by Chris Wilmer'
_symmetry_space_group_name_H-M	'P1'
_symmetry_Int_Tables_number	1
_symmetry_cell_setting	triclinic
loop_
_symmetry_equiv_pos_as_xyz
  x,y,z
_cell_length_a	12.837942
_cell_length_b	10.654545
_cell_length_c	11.892052
_cell_angle_alpha	94.332988
_cell_angle_beta	86.036260
_cell_angle_gamma	90.343990
loop_
_atom_site_label
_atom_site_type_symbol
_atom_site_fract_x
_atom_site_fract_y
_atom_site_fract_z
O1	O	0.151674	-1.691620	-0.093993
O2	O	0.165562	-1.327656	-0.093997
O3	O	0.007657	-1.501567	-0.093988
O4	O	0.309579	-1.517709	-0.094002
O5	O	-0.004296	-1.485796	0.094021
O6	O	0.153610	-1.311886	0.094012
O7	O	0.139721	-1.675849	0.094017
Zn8	Zn	0.144768	-1.491364	0.123865
Zn9	Zn	0.160516	-1.512142	-0.123846
O10	O	0.297626	-1.501939	0.094007
C11	C	0.158567	-1.272862	0.000007
C12	C	0.155519	-1.133086	0.000005
C13	C	-0.036979	-1.488229	0.000016
C14	C	-0.152173	-1.471967	0.000014
C15	C	0.146716	-1.730644	0.000010
C16	C	0.149765	-1.870420	0.000004
C17	C	-0.391727	-1.667473	-0.000007
C18	C	-0.499962	-1.652199	-0.000009
C19	C	-0.476880	-1.426147	-0.000001
C20	C	-0.368645	-1.441421	0.000001
C21	C	-0.326073	-1.562087	-0.000000
C22	C	-0.217836	-1.577360	0.000010
C23	C	-0.194755	-1.351309	0.000011
C24	C	-0.302991	-1.336035	0.000009
C25	C	0.342263	-1.515277	0.000001
C26	C	0.457457	-1.531540	-0.000004
N27	N	0.134019	-1.477192	0.292921
C28	C	0.147569	-1.058828	0.102490
C29	C	0.144688	-0.927494	0.102490
C30	C	0.157712	-0.944688	-0.102488
C31	C	0.160586	-1.076020	-0.102487
C32	C	0.072257	-0.740050	0.225620
C33	C	0.064325	-0.665786	0.328110
C34	C	0.120196	-0.698454	0.418592
C35	C	0.184024	-0.805382	0.406589
C36	C	0.191966	-0.879639	0.304097
C37	C	0.136071	-0.846973	0.213619
C38	C	0.233025	-1.263466	-0.225610
C39	C	0.240974	-1.337725	-0.328103
C40	C	0.185110	-1.305059	-0.418595
C41	C	0.121298	-1.198128	-0.406603
C42	C	0.113348	-1.123869	-0.304110
C43	C	0.169211	-1.156543	-0.213617
N44	N	0.171256	-1.526323	-0.292901
C45	C	0.059241	-1.378591	0.470469
C46	C	0.066751	-1.388486	0.352126
C47	C	0.193780	-1.556012	0.352067
C48	C	0.186270	-1.546117	0.470410
C49	C	0.118999	-1.457403	0.529607
C50	C	0.111495	-1.447503	0.647952
C51	C	0.238518	-1.615034	0.647891
C52	C	0.246028	-1.624929	0.529548
H53	H	-0.357065	-1.765724	0.000002
O54	O	0.238200	-0.836960	0.494613
C55	C	0.217524	-0.748474	0.587639
H56	H	0.139642	-0.700362	0.579355
H57	H	0.213836	-0.798578	0.669201
H58	H	0.282374	-0.674933	0.589584
H59	H	0.248539	-1.628250	0.303849
H60	H	-0.553415	-1.738016	-0.000019
O61	O	-0.344290	-1.218818	-0.000190
C62	C	-0.304602	-1.161936	-0.097540
H63	H	-0.277266	-1.237968	-0.165601
H64	H	-0.368467	-1.103364	-0.130225
H65	H	-0.235984	-1.098481	-0.075517
O66	O	-0.518420	-1.309025	0.000048
C67	C	-0.628027	-1.318154	0.000009
H68	H	-0.654989	-1.410221	0.035598
H69	H	-0.665274	-1.235594	0.054592
H70	H	-0.652451	-1.316027	-0.090191
O71	O	0.296728	-1.691475	0.705291
C72	C	0.403608	-1.671686	0.676333
H73	H	0.414923	-1.574246	0.643814
H74	H	0.449771	-1.678601	0.754148
H75	H	0.432555	-1.746208	0.607625
H76	H	0.018089	-1.324309	0.303980
H77	H	0.300795	-1.697161	0.481334
O78	O	0.002236	-0.561997	0.339600
C79	C	-0.045373	-0.549075	0.237756
H80	H	-0.047532	-0.644481	0.187645
H81	H	-0.128418	-0.512561	0.257485
H82	H	0.001329	-0.479736	0.185784
O83	O	-0.130924	-1.248983	-0.000186
C84	C	-0.061408	-1.259227	-0.097538
H85	H	-0.096238	-1.324469	-0.165601
H86	H	-0.047895	-1.162175	-0.130218
H87	H	0.016121	-1.299318	-0.075519
O88	O	-0.176513	-1.694612	-0.000197
C89	C	-0.203808	-1.767801	-0.097563
H90	H	-0.222478	-1.703168	-0.165613
H91	H	-0.135783	-1.831851	-0.130253
H92	H	-0.275231	-1.827565	-0.075557
H93	H	0.243939	-0.966693	0.294322
O94	O	0.142505	-1.114414	0.201974
C95	C	0.054066	-1.193340	0.208123
H96	H	0.030252	-1.221647	0.119141
H97	H	0.073501	-1.281267	0.251501
H98	H	-0.013067	-1.140932	0.258699
O99	O	0.112314	-0.626405	0.518195
C100	C	0.007449	-0.623492	0.562205
H101	H	-0.035414	-0.709599	0.525718
H102	H	0.004635	-0.624093	0.658188
H103	H	-0.031670	-0.534429	0.538301
O104	O	0.017858	-0.708495	0.137754
C105	C	-0.050496	-0.807490	0.107407
H106	H	-0.067429	-0.866798	0.182444
H107	H	-0.126621	-0.766806	0.082040
H108	H	-0.012712	-0.868913	0.033200
O109	O	0.162826	-0.889182	-0.202013
C110	C	0.251239	-0.810211	-0.208135
H111	H	0.311099	-0.842472	-0.149980
H112	H	0.287077	-0.815147	-0.298781
H113	H	0.227034	-0.709158	-0.180598
H114	H	0.061387	-1.036798	-0.294352
H115	H	0.075814	-1.171527	-0.480291
H116	H	0.292949	-1.424784	-0.337867
O117	O	0.192944	-1.377027	-0.518248
C118	C	0.232126	-1.303323	-0.605317
H119	H	0.277096	-1.219680	-0.567435
H120	H	0.286516	-1.362858	-0.667487
H121	H	0.164453	-1.267835	-0.651436
O122	O	0.287353	-1.294980	-0.137673
C123	C	0.355736	-1.196003	-0.107358
H124	H	0.325713	-1.104206	-0.136511
H125	H	0.359873	-1.186868	-0.011637
H126	H	0.436915	-1.216898	-0.149411
H127	H	0.056724	-1.375263	0.696148
H128	H	0.004476	-1.306346	0.518667
