data_functionalizedCrystal
_audit_creation_method	'MofGen! by Chris Wilmer'
_symmetry_space_group_name_H-M	'P1'
_symmetry_Int_Tables_number	1
_symmetry_cell_setting	triclinic
loop_
_symmetry_equiv_pos_as_xyz
  x,y,z
_cell_length_a	16.120484
_cell_length_b	12.759401
_cell_length_c	12.759393
_cell_angle_alpha	89.980678
_cell_angle_beta	87.137118
_cell_angle_gamma	87.076643
loop_
_atom_site_label
_atom_site_type_symbol
_atom_site_fract_x
_atom_site_fract_y
_atom_site_fract_z
Zn1	Zn	-0.331902	-1.584969	0.615172
Zn2	Zn	0.168098	-1.084969	1.115172
Zn3	Zn	-0.471340	-1.575920	0.448384
Zn4	Zn	0.028660	-1.075920	0.948384
Zn5	Zn	-0.331940	-1.409268	0.439511
Zn6	Zn	0.168060	-0.909268	0.939511
Zn7	Zn	-0.471270	-1.400321	0.624019
Zn8	Zn	0.028730	-0.900321	1.124019
O9	O	-0.401613	-1.492619	0.531771
O10	O	0.098387	-0.992619	1.031771
O11	O	-0.350412	-1.730788	0.593058
O12	O	0.149588	-1.230788	1.093058
O13	O	-0.452893	-1.553771	0.300189
O14	O	0.047107	-1.053771	0.800189
O15	O	-0.215270	-1.440107	0.455397
O16	O	0.284730	-0.940107	0.955397
O17	O	-0.452856	-1.724141	0.470520
O18	O	0.047144	-1.224141	0.970520
O19	O	-0.215242	-1.569193	0.584454
O20	O	0.284758	-1.069193	1.084454
O21	O	-0.350477	-1.431333	0.293670
O22	O	0.149523	-0.931333	0.793670
O23	O	-0.350410	-1.261061	0.463975
O24	O	0.149590	-0.761061	0.963975
O25	O	-0.452738	-1.424857	0.769864
O26	O	0.047262	-0.924857	1.269864
O27	O	-0.452775	-1.254488	0.599533
O28	O	0.047225	-0.754488	1.099533
O29	O	-0.350345	-1.560517	0.763364
O30	O	0.149655	-1.060517	1.263364
O31	O	-0.587995	-1.545095	0.479099
O32	O	-0.087995	-1.045095	0.979099
O33	O	-0.587944	-1.416083	0.608137
O34	O	-0.087944	-0.916083	1.108137
C35	C	-0.401589	-1.219654	0.531752
C36	C	0.098411	-0.719654	1.031752
C37	C	-0.401599	-1.102876	0.531770
C38	C	0.098401	-0.602876	1.031770
C39	C	-0.454984	-1.044614	0.602248
C40	C	0.045016	-0.544614	1.102248
C41	C	-0.454991	-0.934889	0.602258
C42	C	0.045009	-0.434889	1.102258
C43	C	-0.348226	-0.941700	0.461303
C44	C	0.151774	-0.441700	0.961303
C45	C	-0.348215	-1.051423	0.461298
C46	C	0.151785	-0.551423	0.961298
C47	C	-0.508368	-1.096067	0.672719
C48	C	-0.008368	-0.596067	1.172719
C49	C	-0.561758	-1.037804	0.743202
C50	C	-0.061758	-0.537804	1.243202
C51	C	-0.561765	-0.928080	0.743212
C52	C	-0.061765	-0.428080	1.243212
C53	C	-0.508382	-0.876618	0.672739
C54	C	-0.008382	-0.376618	1.172739
C55	C	-0.618220	-1.478665	0.545564
C56	C	-0.118220	-0.978665	1.045564
C57	C	-0.710885	-1.472791	0.551499
C58	C	-0.210885	-0.972791	1.051499
C59	C	-0.880545	-1.462073	0.562358
C60	C	-0.380545	-0.962073	1.062358
C61	C	-0.921840	-1.523354	0.501203
C62	C	-0.421840	-1.023354	1.001203
C63	C	-1.016245	-1.517390	0.507244
C64	C	-0.516245	-1.017390	1.007244
C65	C	-0.786132	-1.468035	0.556317
C66	C	-0.286132	-0.968035	1.056317
C67	C	-0.184161	-1.506657	0.517948
C68	C	0.315839	-1.006657	1.017948
C69	C	-0.091495	-1.512639	0.512058
C70	C	0.408505	-1.012639	1.012058
C71	C	-0.401529	-1.492698	0.805800
C72	C	0.098471	-0.992698	1.305800
C73	C	-0.401493	-1.492732	0.922574
C74	C	0.098507	-0.992732	1.422574
C75	C	-0.401630	-0.766652	0.531788
C76	C	0.098370	-0.266652	1.031788
C77	C	-0.401617	-0.883429	0.531784
C78	C	0.098383	-0.383429	1.031784
C79	C	-0.401637	-1.492605	0.258806
C80	C	0.098363	-0.992605	0.758806
C81	C	-0.401438	-1.492790	0.142017
C82	C	0.098562	-0.992790	0.642017
C83	C	-0.348172	-1.563380	0.974053
C84	C	0.151828	-1.063380	1.474053
C85	C	-0.348142	-1.563407	1.083775
C86	C	0.151858	-1.063407	1.583775
C87	C	-0.454761	-1.422135	1.090530
C88	C	0.045239	-0.922135	1.590530
C89	C	-0.454787	-1.422104	0.980810
C90	C	0.045213	-0.922104	1.480810
C91	C	-0.294879	-1.634008	0.915817
C92	C	0.205121	-1.134008	1.415817
C93	C	-0.241554	-1.704662	0.967296
C94	C	0.258446	-1.204662	1.467296
C95	C	-0.241524	-1.704689	1.077018
C96	C	0.258476	-1.204689	1.577018
C97	C	-0.294819	-1.634062	1.135261
C98	C	0.205181	-1.134062	1.635261
H99	H	-0.605232	-0.880645	0.800610
H100	H	-0.105232	-0.380645	1.300610
N101	N	-0.616295	-1.090365	0.815171
N102	N	-0.116295	-0.590365	1.315171
N103	N	-0.693217	-1.073160	0.812934
N104	N	-0.193217	-0.573160	1.312934
H105	H	-0.731736	-1.110280	0.863764
H106	H	-0.231736	-0.610280	1.363764
H107	H	-0.294780	-1.634078	1.224604
H108	H	0.205220	-1.134078	1.724604
N109	N	-0.877267	-1.594780	0.429807
N110	N	-0.377267	-1.094780	0.929807
N111	N	-0.916039	-1.652390	0.372298
N112	N	-0.416039	-1.152390	0.872298
H113	H	-0.884558	-1.702831	0.321873
H114	H	-0.384558	-1.202831	0.821873
H115	H	-0.498151	-1.364633	1.137961
H116	H	0.001849	-0.864633	1.637961
H117	H	-0.498192	-1.364561	0.938894
H118	H	0.001808	-0.864561	1.438894
N119	N	-0.294903	-1.634002	0.803740
N120	N	0.205097	-1.134002	1.303740
N121	N	-0.247321	-1.697067	0.751752
N122	N	0.252679	-1.197067	1.251752
H123	H	-0.247340	-1.697064	0.672597
H124	H	0.252660	-1.197064	1.172597
H125	H	-0.304765	-0.899791	0.403927
H126	H	0.195235	-0.399791	0.903927
N127	N	-0.508389	-0.764537	0.672775
N128	N	-0.008389	-0.264537	1.172775
N129	N	-0.556053	-0.712526	0.735715
N130	N	-0.056053	-0.212526	1.235715
H131	H	-0.556061	-0.633369	0.735740
H132	H	-0.056061	-0.133369	1.235740
H133	H	-0.304738	-1.098862	0.403916
H134	H	0.195262	-0.598862	0.903916
N135	N	-0.508377	-1.208146	0.672717
N136	N	-0.008377	-0.708146	1.172717
N137	N	-0.556045	-1.254077	0.735636
N138	N	-0.056045	-0.754077	1.235636
H139	H	-0.556053	-1.333233	0.735632
H140	H	-0.056053	-0.833233	1.235632
N141	N	-0.925144	-1.390650	0.633723
N142	N	-0.425144	-0.890650	1.133723
N143	N	-1.002881	-1.385852	0.638586
N144	N	-0.502881	-0.885852	1.138586
H145	H	-1.034389	-1.335409	0.688985
H146	H	-0.534389	-0.835409	1.188985
H147	H	-0.198158	-1.762158	0.919866
H148	H	0.301842	-1.262158	1.419866
H149	H	-0.198098	-1.762212	1.118928
H150	H	0.301902	-1.262212	1.618928
