data_functionalizedCrystal
_audit_creation_method	'MofGen! by Chris Wilmer'
_symmetry_space_group_name_H-M	'P1'
_symmetry_Int_Tables_number	1
_symmetry_cell_setting	triclinic
loop_
_symmetry_equiv_pos_as_xyz
  x,y,z
_cell_length_a	19.805407
_cell_length_b	16.959453
_cell_length_c	19.805399
_cell_angle_alpha	89.972778
_cell_angle_beta	89.975799
_cell_angle_gamma	90.021973
loop_
_atom_site_label
_atom_site_type_symbol
_atom_site_fract_x
_atom_site_fract_y
_atom_site_fract_z
Zn1	Zn	1.034753	-0.314716	-0.382805
Zn2	Zn	1.034675	-0.446898	-0.269617
Zn3	Zn	0.921568	-0.314736	-0.269620
Zn4	Zn	0.921538	-0.446854	-0.382755
O5	O	0.978134	-0.380801	-0.326199
O6	O	1.129459	-0.332260	-0.367810
O7	O	1.019651	-0.429393	-0.174901
O8	O	0.936627	-0.204122	-0.284657
O9	O	1.129402	-0.429374	-0.284652
O10	O	1.019784	-0.204107	-0.367813
O11	O	0.936551	-0.332294	-0.174903
O12	O	0.826847	-0.332252	-0.284608
O13	O	0.936577	-0.429299	-0.477478
O14	O	0.826826	-0.429319	-0.367728
O15	O	1.019755	-0.332217	-0.477515
O16	O	1.019623	-0.557503	-0.284603
O17	O	0.936501	-0.557471	-0.367725
C18	C	0.802278	-0.380783	-0.326163
C19	C	0.727046	-0.380795	-0.326164
C20	C	0.265261	-0.431439	-0.369455
C21	C	0.335950	-0.431437	-0.369441
C22	C	0.371284	-0.380820	-0.326226
C23	C	0.335926	-0.330206	-0.283018
C24	C	0.265239	-0.330212	-0.283029
C25	C	0.620999	-0.330182	-0.282970
C26	C	0.691691	-0.330179	-0.282963
C27	C	0.691710	-0.431407	-0.369382
C28	C	0.621023	-0.431413	-0.369393
C29	C	0.585671	-0.380803	-0.326183
C30	C	0.509023	-0.380806	-0.326198
C31	C	0.447931	-0.380812	-0.326214
C32	C	0.978069	-0.586167	-0.326173
C33	C	0.978103	-0.674024	-0.326184
C34	C	0.934860	-0.715374	-0.282858
C35	C	1.021375	-0.715228	-0.369526
C36	C	1.021407	-0.797773	-0.369540
C37	C	0.978163	-0.839123	-0.326214
C38	C	0.934888	-0.797927	-0.282873
C39	C	1.064676	-0.838976	-0.412885
C40	C	1.064709	-0.921526	-0.412902
C41	C	1.021468	-0.962878	-0.369572
C42	C	0.978192	-0.921677	-0.326229
C43	C	0.934949	-0.963027	-0.282902
C44	C	0.891676	-0.921827	-0.239555
C45	C	0.891648	-0.839279	-0.239543
C46	C	1.021496	-1.045426	-0.369585
C47	C	0.934978	-1.045580	-0.282917
C48	C	1.154676	-0.380819	-0.326236
C49	C	1.229908	-0.380827	-0.326252
C50	C	0.978172	-0.380751	-0.502742
C51	C	0.978188	-0.380730	-0.577974
C52	C	0.978217	-0.174633	-0.326241
C53	C	0.978253	-0.086776	-0.326258
C54	C	1.021500	-0.330177	-0.613339
C55	C	1.021507	-0.330154	-0.684027
C56	C	0.978205	-0.380689	-0.719350
C57	C	0.934888	-0.431244	-0.683981
C58	C	0.934878	-0.431262	-0.613293
C59	C	0.934926	-0.431170	-0.969054
C60	C	0.934941	-0.431150	-1.039746
C61	C	1.021555	-0.330062	-1.039788
C62	C	1.021545	-0.330080	-0.969101
C63	C	0.978226	-0.380632	-0.933737
C64	C	0.978218	-0.380656	-0.857089
C65	C	0.978215	-0.380670	-0.795997
C66	C	0.978135	-0.380794	-0.150343
C67	C	0.978250	-0.380592	-0.075112
H68	H	0.592257	-0.472628	-0.404586
H69	H	0.899765	-1.079241	-0.247633
H70	H	1.056763	-0.289028	-0.584584
C71	C	0.887284	-0.486779	-0.930160
H72	H	0.893471	-0.479550	-0.883002
H73	H	0.897170	-0.539885	-0.941737
H74	H	0.841811	-0.475198	-0.941738
H75	H	0.236456	-0.288997	-0.247850
C76	C	0.844110	-0.967317	-0.191900
H77	H	0.850330	-1.022380	-0.198119
H78	H	0.798621	-0.953823	-0.201749
H79	H	0.854048	-0.953823	-0.146427
C80	C	1.069087	-1.090746	-0.417260
H81	H	1.062909	-1.145831	-0.411067
H82	H	1.114567	-1.077182	-0.407408
H83	H	1.059136	-1.077192	-0.462726
C84	C	0.730595	-0.487086	-0.416910
H85	H	0.699427	-0.517225	-0.442653
H86	H	0.758146	-0.521488	-0.390965
H87	H	0.758195	-0.456887	-0.446444
H88	H	0.592225	-0.288975	-0.247783
H89	H	0.856416	-0.805729	-0.204251
H90	H	0.899628	-0.472387	-0.712746
H91	H	0.899602	-0.472420	-0.584501
C92	C	0.887261	-0.670060	-0.235182
H93	H	0.893432	-0.614974	-0.241378
H94	H	0.897199	-0.683619	-0.189719
H95	H	0.841780	-0.683622	-0.245047
H96	H	0.236497	-0.472653	-0.404649
C97	C	1.112312	-0.966839	-0.460575
H98	H	1.138065	-0.930389	-0.486373
H99	H	1.086417	-0.999047	-0.490044
H100	H	1.141835	-0.999029	-0.434714
C101	C	0.374838	-0.487133	-0.416942
H102	H	0.421997	-0.479896	-0.410735
H103	H	0.363296	-0.475658	-0.462446
H104	H	0.363219	-0.540221	-0.406934
C105	C	0.730558	-0.274501	-0.235421
H106	H	0.699381	-0.244365	-0.209684
H107	H	0.758157	-0.240097	-0.261360
H108	H	0.758109	-0.304700	-0.205882
H109	H	1.056777	-0.288991	-0.712818
C110	C	1.069174	-0.274493	-0.930246
H111	H	1.062968	-0.281749	-0.883082
H112	H	1.059292	-0.221381	-0.941839
H113	H	1.114652	-0.286066	-0.941839
H114	H	1.056825	-0.288897	-1.068589
C115	C	0.887301	-0.486735	-1.078600
H116	H	0.861496	-0.516839	-1.047416
H117	H	0.913180	-0.521172	-1.106175
H118	H	0.857829	-0.456476	-1.106173
H119	H	0.364701	-0.288996	-0.247828
C120	C	1.068939	-0.669745	-0.417180
H121	H	1.062726	-0.614682	-0.410961
H122	H	1.059012	-0.683247	-0.462649
H123	H	1.114430	-0.683237	-0.407318
H124	H	1.099880	-0.805306	-0.448164
