data_functionalizedCrystal
_audit_creation_method	'MofGen! by Chris Wilmer'
_symmetry_space_group_name_H-M	'P1'
_symmetry_Int_Tables_number	1
_symmetry_cell_setting	triclinic
loop_
_symmetry_equiv_pos_as_xyz
  x,y,z
_cell_length_a	15.297475
_cell_length_b	13.897448
_cell_length_c	13.897449
_cell_angle_alpha	90.009266
_cell_angle_beta	99.667134
_cell_angle_gamma	80.320483
loop_
_atom_site_label
_atom_site_type_symbol
_atom_site_fract_x
_atom_site_fract_y
_atom_site_fract_z
Zn1	Zn	1.379089	-0.639836	0.800151
Zn2	Zn	1.879089	-0.139836	1.300151
Zn3	Zn	1.379034	-0.801088	0.638843
Zn4	Zn	1.879034	-0.301088	1.138843
Zn5	Zn	1.228265	-0.611859	0.611007
Zn6	Zn	1.728265	-0.111859	1.111007
Zn7	Zn	1.228203	-0.773121	0.772231
Zn8	Zn	1.728203	-0.273121	1.272231
O9	O	1.303648	-0.706476	0.705558
O10	O	1.803648	-0.206476	1.205558
O11	O	1.505325	-0.684639	0.802087
O12	O	2.005325	-0.184639	1.302087
O13	O	1.359037	-0.775982	0.500169
O14	O	1.859037	-0.275982	1.000169
O15	O	1.248320	-0.480598	0.636132
O16	O	1.748320	0.019402	1.136132
O17	O	1.505285	-0.803110	0.683575
O18	O	2.005285	-0.303110	1.183575
O19	O	1.359130	-0.501153	0.775096
O20	O	1.859130	-0.001153	1.275096
O21	O	1.248267	-0.636957	0.479718
O22	O	1.748267	-0.136957	0.979718
O23	O	1.102013	-0.609838	0.609059
O24	O	1.602013	-0.109838	1.109059
O25	O	1.248216	-0.755444	0.910916
O26	O	1.748216	-0.255444	1.410916
O27	O	1.101968	-0.728316	0.727510
O28	O	1.601968	-0.228316	1.227510
O29	O	1.359071	-0.657521	0.931429
O30	O	1.859071	-0.157521	1.431429
O31	O	1.358977	-0.932350	0.656501
O32	O	1.858977	-0.432350	1.156501
O33	O	1.248162	-0.911803	0.754501
O34	O	1.748162	-0.411803	1.254501
C35	C	1.069257	-0.663007	0.662235
C36	C	1.569257	-0.163007	1.162235
C37	C	0.968983	-0.644434	0.643724
C38	C	1.468983	-0.144434	1.143724
C39	C	1.303582	-0.957078	0.705518
C40	C	1.803582	-0.457078	1.205518
C41	C	1.303636	-1.064302	0.705548
C42	C	1.803636	-0.564302	1.205548
C43	C	0.686335	-0.839226	0.837860
C44	C	1.186335	-0.339226	1.337860
C45	C	0.780547	-0.856684	0.855249
C46	C	1.280547	-0.356684	1.355249
C47	C	0.827660	-0.803623	0.802370
C48	C	1.327660	-0.303623	1.302370
C49	C	0.780553	-0.733102	0.732098
C50	C	1.280553	-0.233102	1.232098
C51	C	0.686332	-0.715648	0.714701
C52	C	1.186332	-0.215648	1.214701
C53	C	0.827657	-0.680044	0.679211
C54	C	1.327657	-0.180044	1.179211
C55	C	0.780550	-0.609523	0.608939
C56	C	1.280550	-0.109523	1.108939
C57	C	0.686338	-0.592072	0.591546
C58	C	1.186338	-0.092072	1.091546
C59	C	0.639224	-0.645133	0.644426
C60	C	1.139224	-0.145133	1.144426
C61	C	0.921879	-0.697498	0.696607
C62	C	1.421879	-0.197498	1.196607
C63	C	0.921876	-0.573920	0.573448
C64	C	1.421876	-0.073920	1.073448
C65	C	0.827664	-0.556462	0.556059
C66	C	1.327664	-0.056462	1.056059
C67	C	1.303731	-1.260615	0.705626
C68	C	1.803731	-0.760615	1.205626
C69	C	1.303676	-1.151372	0.705585
C70	C	1.803676	-0.651372	1.205585
C71	C	1.538954	-0.750115	0.749051
C72	C	2.038954	-0.250115	1.249051
C73	C	1.639227	-0.768712	0.767585
C74	C	2.139227	-0.268712	1.267585
C75	C	1.303642	-0.706484	0.957150
C76	C	1.803642	-0.206484	1.457150
C77	C	1.303640	-0.706487	1.064363
C78	C	1.803640	-0.206487	1.564363
C79	C	1.303738	-0.454900	0.705624
C80	C	1.803738	0.045100	1.205624
C81	C	1.303777	-0.347693	0.705652
C82	C	1.803777	0.152307	1.205652
C83	C	1.303638	-0.706490	1.151433
C84	C	1.803638	-0.206490	1.651433
C85	C	1.303637	-0.706485	1.260665
C86	C	1.803637	-0.206485	1.760665
C87	C	1.303644	-0.706487	1.454943
C88	C	1.803644	-0.206487	1.954943
C89	C	1.303641	-0.706477	1.347728
C90	C	1.803641	-0.206477	1.847728
H91	H	0.960224	-0.754916	0.753824
H92	H	1.460224	-0.254916	1.253824
H93	H	0.904372	-0.817840	0.816533
H94	H	1.404372	-0.317840	1.316533
C95	C	0.832358	-0.934256	0.932545
C96	C	1.332358	-0.434256	1.432545
N97	N	0.871383	-0.992688	0.990768
N98	N	1.371383	-0.492688	1.490768
C99	C	0.634504	-0.897588	0.896016
C100	C	1.134504	-0.397588	1.396016
N101	N	0.595463	-0.941550	0.939822
N102	N	1.095463	-0.441550	1.439822
H103	H	0.960235	-0.530714	0.530388
H104	H	1.460235	-0.030714	1.030388
C105	C	0.535585	-0.625919	0.625315
C106	C	1.035585	-0.125919	1.125315
N107	N	0.457522	-0.611445	0.610929
N108	N	0.957522	-0.111445	1.110929
C109	C	0.634522	-0.514499	0.514243
C110	C	1.134522	-0.014499	1.014243
N111	N	0.595496	-0.456068	0.456020
N112	N	1.095496	0.043932	0.956020
H113	H	0.789295	-0.499044	0.498842
H114	H	1.289295	0.000956	0.998842
