data_functionalizedCrystal
_audit_creation_method	'MofGen! by Chris Wilmer'
_symmetry_space_group_name_H-M	'P1'
_symmetry_Int_Tables_number	1
_symmetry_cell_setting	triclinic
loop_
_symmetry_equiv_pos_as_xyz
  x,y,z
_cell_length_a	16.109295
_cell_length_b	10.268362
_cell_length_c	16.109301
_cell_angle_alpha	90.006707
_cell_angle_beta	96.539666
_cell_angle_gamma	89.998345
loop_
_atom_site_label
_atom_site_type_symbol
_atom_site_fract_x
_atom_site_fract_y
_atom_site_fract_z
O1	O	-1.103135	0.108216	0.106846
O2	O	-0.861072	0.108238	0.120150
O3	O	-0.988753	0.108213	-0.007533
O4	O	-0.975454	0.108241	0.234529
O5	O	-0.988742	-0.108388	-0.007539
O6	O	-0.861061	-0.108362	0.120145
O7	O	-1.103124	-0.108385	0.106840
Cu8	Cu	-0.982091	-0.128151	0.113492
Cu9	Cu	-0.982105	0.128004	0.113498
O10	O	-0.975443	-0.108360	0.234524
C11	C	-0.830092	-0.000059	0.119609
C12	C	-0.737796	-0.000051	0.117996
N13	N	-0.982088	-0.308317	0.113487
C14	C	-0.515523	-0.000057	0.190008
C15	C	-0.428803	-0.000065	0.188486
C16	C	-0.448677	-0.000077	0.036996
C17	C	-0.535396	-0.000078	0.038520
C18	C	-0.568816	-0.000061	0.115028
C19	C	-0.395377	-0.000068	0.111982
C20	C	-0.301351	-0.000077	0.110331
C21	C	-0.662849	-0.000055	0.116679
C22	C	-0.982100	-0.573987	0.113496
C23	C	-0.982091	-0.426150	0.113494
C24	C	-0.134104	-0.000083	0.107386
C25	C	-0.226397	-0.000078	0.109014
C26	C	-0.988209	-0.000088	-0.038511
C27	C	-0.986594	-0.000090	-0.130806
N28	N	-0.982114	0.308170	0.113496
C29	C	-1.058602	-0.000076	-0.353080
C30	C	-1.057078	-0.000065	-0.439800
C31	C	-0.905588	-0.000056	-0.419923
C32	C	-0.907113	-0.000057	-0.333204
C33	C	-0.983622	-0.000074	-0.299785
C34	C	-0.980573	-0.000061	-0.473225
C35	C	-0.978920	-0.000050	-0.567251
C36	C	-0.985276	-0.000083	-0.205754
C37	C	-0.975987	-0.000056	0.265501
C38	C	-0.977602	-0.000046	0.357796
H39	H	-0.542731	-0.000053	0.252306
H40	H	-0.421455	-0.000098	-0.025294
H41	H	-0.846052	-0.000052	-0.289809
H42	H	-0.578790	-0.000086	-0.022542
H43	H	-1.120900	-0.000086	-0.325874
H44	H	-1.118133	-0.000063	-0.483190
H45	H	-0.385414	-0.000064	0.249542
H46	H	-0.843297	-0.000045	-0.447144
