data_functionalizedCrystal
_audit_creation_method	'MofGen! by Chris Wilmer'
_symmetry_space_group_name_H-M	'P1'
_symmetry_Int_Tables_number	1
_symmetry_cell_setting	triclinic
loop_
_symmetry_equiv_pos_as_xyz
  x,y,z
_cell_length_a	16.974800
_cell_length_b	23.532357
_cell_length_c	15.455313
_cell_angle_alpha	92.642146
_cell_angle_beta	90.973911
_cell_angle_gamma	83.110074
loop_
_atom_site_label
_atom_site_type_symbol
_atom_site_fract_x
_atom_site_fract_y
_atom_site_fract_z
O1	O	1.048489	0.072598	0.001487
O2	O	0.818986	0.081295	-0.014633
O3	O	0.940678	-0.005947	-0.006068
O4	O	0.926797	0.159840	-0.007078
O5	O	0.933719	-0.000979	0.137705
O6	O	0.812027	0.086264	0.129140
O7	O	1.041530	0.077566	0.145259
Cu8	Cu	0.926143	0.082369	0.150327
Cu9	Cu	0.934373	0.076493	-0.019700
O10	O	0.919838	0.164809	0.136694
C11	C	0.786151	0.083358	0.055192
C12	C	0.698679	0.082094	0.049049
C13	C	0.653796	0.084207	0.124536
C14	C	0.571609	0.083011	0.118766
C15	C	0.534306	0.079705	0.037510
C16	C	0.579195	0.077590	-0.037982
C17	C	0.661381	0.078782	-0.032212
C18	C	0.288913	0.075845	0.011848
C19	C	0.206720	0.074654	0.006084
C20	C	0.199140	0.080074	0.162833
C21	C	0.281328	0.081270	0.168596
C22	C	0.326210	0.079151	0.093104
N23	N	0.450297	0.078484	0.031610
N24	N	0.410218	0.080368	0.099004
C25	C	0.936851	-0.024681	0.065797
C26	C	0.935807	-0.087905	0.065732
C27	C	0.933048	-0.482664	-0.013146
C28	C	0.932056	-0.542069	-0.013220
O29	O	0.934742	-0.575092	-0.079909
N30	N	0.927770	-0.569075	0.065114
C31	C	0.924469	-0.536671	0.143528
O32	O	0.920732	-0.565097	0.210151
C33	C	0.925456	-0.477267	0.143602
C34	C	0.929749	-0.450265	0.065262
C35	C	0.937340	-0.455662	-0.091478
C36	C	0.938334	-0.396261	-0.091403
C37	C	0.935035	-0.363862	-0.012995
C38	C	0.930743	-0.390864	0.065338
C39	C	0.922149	-0.444864	0.222014
C40	C	0.923135	-0.385455	0.222081
C41	C	0.927429	-0.358454	0.143742
C42	C	0.928438	-0.299064	0.143821
N43	N	0.932723	-0.272058	0.065486
C44	C	0.936022	-0.304457	-0.012922
C45	C	0.922396	-0.661425	0.143368
C46	C	0.921415	-0.720829	0.143296
C47	C	0.929000	-0.726223	-0.013453
C48	C	0.929987	-0.666818	-0.013379
C49	C	0.926681	-0.634420	0.065034
C50	C	0.938109	-0.179710	-0.012758
C51	C	0.939105	-0.120304	-0.012676
C52	C	0.931516	-0.114916	0.144072
C53	C	0.930523	-0.174317	0.143990
C54	C	0.933818	-0.206713	0.065568
O55	O	0.925751	-0.266005	0.210475
O56	O	0.939748	-0.276023	-0.079534
C57	C	1.074365	0.075504	0.075433
C58	C	1.161837	0.076768	0.081570
C59	C	0.923665	0.183543	0.064828
C60	C	0.924710	0.246767	0.064887
N61	N	0.920361	0.086501	0.269916
N62	N	0.940161	0.072356	-0.139288
C63	C	0.972077	0.049451	0.318950
C64	C	0.967712	0.052581	0.409450
C65	C	0.911632	0.092765	0.450915
C66	C	0.859910	0.129816	0.401875
C67	C	0.864273	0.126683	0.311375
C68	C	0.892802	0.106274	0.721172
C69	C	0.888445	0.109406	0.811677
C70	C	0.996246	0.032170	0.819247
C71	C	1.000606	0.029043	0.728746
C72	C	0.948882	0.066092	0.679713
N73	N	0.907170	0.095966	0.543422
N74	N	0.953341	0.062887	0.587208
H75	H	0.697924	0.077063	-0.093681
N76	N	1.061093	-0.014297	0.684024
H77	H	1.093193	-0.037294	0.728821
H78	H	1.032940	-0.040835	0.644388
N79	N	0.337316	0.073556	-0.069571
H80	H	0.301211	0.071282	-0.121920
H81	H	0.364910	0.109202	-0.071076
H82	H	0.942603	-0.098323	-0.076472
H83	H	0.933482	-0.644837	-0.077170
H84	H	0.684162	0.086904	0.190703
N85	N	0.942977	-0.367145	-0.175899
H86	H	0.943112	-0.324596	-0.163967
H87	H	0.993324	-0.383259	-0.206684
H88	H	0.548817	0.074895	-0.104143
N89	N	1.052029	-0.007788	0.872135
H90	H	1.020314	-0.031766	0.907601
H91	H	1.088205	-0.033681	0.832080
H92	H	0.535071	0.084722	0.180235
N93	N	0.941675	-0.214649	-0.097338
H94	H	0.990292	-0.243956	-0.097422
H95	H	0.892546	-0.234839	-0.104259
N96	N	1.032568	0.006113	0.274230
H97	H	1.064666	-0.016883	0.319029
H98	H	1.004417	-0.020425	0.234594
H99	H	0.842776	0.142131	0.845434
H100	H	0.814245	0.162532	0.435640
N101	N	0.321560	0.084841	0.256237
H102	H	0.280655	0.085999	0.303183
H103	H	0.362174	0.050184	0.262527
N104	N	0.837012	0.146230	0.668292
H105	H	0.800826	0.172161	0.708295
H106	H	0.868776	0.170170	0.632824
H107	H	0.919707	-0.635050	0.207226
N108	N	0.940952	-0.490606	-0.176050
H109	H	0.943839	-0.464479	-0.225653
H110	H	0.989585	-0.519894	-0.176022
N111	N	0.808489	0.166640	0.258484
H112	H	0.772301	0.192572	0.298482
H113	H	0.840258	0.190579	0.223018
H114	H	0.162588	0.081797	0.224294
H115	H	0.917931	-0.742810	0.207089
N116	N	0.166482	0.071094	-0.081561
H117	H	0.207385	0.069933	-0.128510
H118	H	0.139217	0.035212	-0.086890
N119	N	0.932590	-0.761190	-0.098010
H120	H	0.983290	-0.756575	-0.128806
H121	H	0.931290	-0.802900	-0.086067
H122	H	0.918654	-0.466838	0.285807
H123	H	0.920431	-0.359078	0.285935
H124	H	0.927035	-0.196304	0.207781
N125	N	0.927963	-0.079961	0.228633
H126	H	0.879348	-0.050652	0.228715
H127	H	0.925125	-0.106114	0.278208
N128	N	1.023518	0.012640	0.462340
H129	H	1.059718	-0.013282	0.422341
H130	H	1.056352	0.035837	0.502288
