data_functionalizedCrystal
_audit_creation_method	'MofGen! by Chris Wilmer'
_symmetry_space_group_name_H-M	'P1'
_symmetry_Int_Tables_number	1
_symmetry_cell_setting	triclinic
loop_
_symmetry_equiv_pos_as_xyz
  x,y,z
_cell_length_a	10.654562
_cell_length_b	9.065218
_cell_length_c	9.130313
_cell_angle_alpha	90.000552
_cell_angle_beta	89.996930
_cell_angle_gamma	84.752995
loop_
_atom_site_label
_atom_site_type_symbol
_atom_site_fract_x
_atom_site_fract_y
_atom_site_fract_z
O1	O	1.668646	0.207317	-0.121889
O2	O	2.168646	0.707317	0.378111
O3	O	1.303248	0.227042	-0.121871
O4	O	1.803248	0.727042	0.378129
O5	O	1.493499	0.002496	-0.121877
O6	O	1.993499	0.502496	0.378123
O7	O	1.478394	0.431863	-0.121883
O8	O	1.978394	0.931863	0.378117
O9	O	1.493497	0.002502	0.121721
O10	O	1.993497	0.502502	0.621721
O11	O	1.303245	0.227048	0.121728
O12	O	1.803245	0.727048	0.621728
O13	O	1.668644	0.207324	0.121709
O14	O	2.168644	0.707324	0.621709
Cu15	Cu	1.485944	0.217186	0.143961
Cu16	Cu	1.985944	0.717186	0.643961
Cu17	Cu	1.485947	0.217179	-0.144122
Cu18	Cu	1.985947	0.717179	0.355878
O19	O	1.478392	0.431869	0.121716
O20	O	1.978392	0.931869	0.621716
C21	C	1.256443	0.225593	-0.000069
C22	C	1.756443	0.725593	0.499931
C23	C	1.116983	0.221248	-0.000062
C24	C	1.616983	0.721248	0.499938
C25	C	1.051443	0.219225	0.132713
C26	C	1.551443	0.719225	0.632713
C27	C	0.920405	0.215154	0.132688
C28	C	1.420405	0.715154	0.632688
C29	C	0.920457	0.215137	-0.132897
C30	C	1.420457	0.715137	0.367103
C31	C	1.051494	0.219196	-0.132871
C32	C	1.551494	0.719196	0.367129
C33	C	1.051411	0.219241	0.286046
C34	C	1.551411	0.719241	0.786046
C35	C	0.920373	0.215171	0.286022
C36	C	1.420373	0.715171	0.786022
C37	C	1.492047	-0.052479	-0.000080
C38	C	1.992047	0.447521	0.499920
C39	C	1.487706	-0.216299	-0.000087
C40	C	1.987706	0.283701	0.499913
C41	C	1.715448	0.208773	-0.000096
C42	C	2.215448	0.708773	0.499904
C43	C	1.854908	0.213117	-0.000112
C44	C	2.354908	0.713117	0.499888
C45	C	1.479845	0.486845	-0.000084
C46	C	1.979845	0.986845	0.499916
C47	C	1.484185	0.650664	-0.000087
C48	C	1.984185	1.150664	0.499913
N49	N	1.485951	0.217190	0.346584
N50	N	1.985951	0.717190	0.846584
N51	N	1.485950	0.217163	-0.346745
N52	N	1.985950	0.717163	0.153255
C53	C	1.570217	0.117796	0.423233
C54	C	2.070217	0.617796	0.923233
C55	C	1.570213	0.117778	0.576570
C56	C	2.070213	0.617778	1.076570
C57	C	1.401675	0.316563	0.576595
C58	C	1.901675	0.816563	1.076595
C59	C	1.401673	0.316572	0.423261
C60	C	1.901673	0.816572	0.923261
C61	C	1.667525	0.003033	0.423220
C62	C	2.167525	0.503033	0.923220
C63	C	1.667522	0.003016	0.576556
C64	C	2.167522	0.503016	1.076556
H65	H	0.874490	0.317142	0.344885
H66	H	1.374490	0.817142	0.844885
H67	H	1.645633	-0.110375	0.381602
H68	H	2.145633	0.389625	0.881602
F69	F	1.311974	0.422342	0.341686
F70	F	1.811974	0.922342	0.841686
H71	H	1.758851	0.038974	0.375656
H72	H	2.258851	0.538974	0.875656
F73	F	1.627076	-0.137056	0.638716
F74	F	2.127076	0.362944	1.138716
F75	F	1.311984	0.422325	0.658212
F76	F	1.811984	0.922325	1.158212
F77	F	1.793799	0.036053	0.630952
F78	F	2.293799	0.536053	1.130952
H79	H	1.104854	0.220821	-0.240988
H80	H	1.604854	0.720821	0.259012
F81	F	0.850750	0.212939	-0.274233
F82	F	1.350750	0.712939	0.225767
F83	F	1.111353	0.085970	0.363012
F84	F	1.611353	0.585970	0.863012
H85	H	1.081411	0.326850	0.333621
H86	H	1.581411	0.826850	0.833621
H87	H	0.890358	0.107566	0.333602
H88	H	1.390358	0.607566	0.833602
