data_functionalizedCrystal
_audit_creation_method	'MofGen! by Chris Wilmer'
_symmetry_space_group_name_H-M	'P1'
_symmetry_Int_Tables_number	1
_symmetry_cell_setting	triclinic
loop_
_symmetry_equiv_pos_as_xyz
  x,y,z
_cell_length_a	17.000371
_cell_length_b	17.038272
_cell_length_c	9.130313
_cell_angle_alpha	89.998262
_cell_angle_beta	89.999497
_cell_angle_gamma	83.355402
loop_
_atom_site_label
_atom_site_type_symbol
_atom_site_fract_x
_atom_site_fract_y
_atom_site_fract_z
O1	O	1.057997	0.028039	-0.121806
O2	O	0.828177	0.056284	-0.121808
O3	O	0.941721	-0.071560	-0.121795
O4	O	0.944453	0.155884	-0.121819
O5	O	0.941719	-0.071557	0.121803
O6	O	0.828175	0.056288	0.121791
O7	O	1.057995	0.028043	0.121793
Cu8	Cu	0.943085	0.042165	0.144034
Cu9	Cu	0.943087	0.042161	-0.144049
O10	O	0.944451	0.155887	0.121780
C11	C	0.798625	0.057803	-0.000009
C12	C	0.710572	0.062314	-0.000009
C13	C	0.673845	-0.007108	0.000000
C14	C	0.591110	-0.002864	-0.000011
C15	C	0.545102	0.070802	-0.000021
C16	C	0.581834	0.140229	-0.000035
C17	C	0.664568	0.135985	-0.000034
C18	C	0.295066	0.087196	-0.000032
C19	C	0.212327	0.091434	-0.000028
C20	C	0.221608	-0.051659	-0.000007
C21	C	0.304344	-0.055897	0.000002
C22	C	0.341068	0.013530	-0.000019
C23	C	0.460533	0.075141	-0.000027
C24	C	0.425636	0.009190	-0.000023
C25	C	0.939235	-0.100516	0.000004
C26	C	0.931823	-0.186802	0.000003
C27	C	0.999881	-0.241577	0.000006
C28	C	0.992911	-0.322650	-0.000008
C29	C	0.917882	-0.348946	-0.000014
C30	C	0.849819	-0.294164	-0.000021
C31	C	0.856789	-0.213093	-0.000017
C32	C	0.893256	-0.593018	-0.000034
C33	C	0.886291	-0.674096	-0.000033
C34	C	1.029384	-0.702577	-0.000024
C35	C	1.036348	-0.621502	-0.000012
C36	C	0.968285	-0.566727	-0.000026
C37	C	0.910756	-0.431816	-0.000024
C38	C	0.975411	-0.483859	-0.000027
C39	C	1.087547	0.026524	-0.000010
C40	C	1.175600	0.022013	-0.000019
C41	C	0.946936	0.184843	-0.000022
C42	C	0.954349	0.271129	-0.000031
N43	N	0.943090	0.042167	0.346657
N44	N	0.943088	0.042153	-0.346672
C45	C	0.993382	-0.014425	0.423315
C46	C	0.993379	-0.014434	0.576651
C47	C	0.892790	0.098748	0.576660
C48	C	0.892789	0.098753	0.423326
C49	C	1.043683	-0.071011	0.346646
C50	C	1.093980	-0.127608	0.423304
C51	C	1.093977	-0.127617	0.576641
C52	C	1.043677	-0.071030	0.653320
H53	H	0.694469	0.192515	-0.000035
Br54	Br	0.808933	-0.467510	-0.000046
Br55	Br	0.541270	-0.097084	-0.000049
H56	H	1.043674	-0.071047	0.778177
Br57	Br	1.101711	-0.205899	0.000034
H58	H	1.134927	-0.173684	0.360864
H59	H	0.191698	-0.108182	-0.000006
Br60	Br	0.519395	0.240205	-0.000069
H61	H	1.084797	-0.747183	-0.000015
Br62	Br	1.162226	-0.204432	0.680676
H63	H	0.463099	-0.050788	-0.000023
Br64	Br	0.824529	0.175556	0.319286
Br65	Br	0.398087	0.175114	-0.000048
Br66	Br	0.747992	-0.329850	-0.000053
Br67	Br	1.085281	-0.396987	-0.000006
H68	H	1.043691	-0.071008	0.221792
Br69	Br	0.736277	-0.107088	0.000029
Br70	Br	0.784459	-0.709782	-0.000026
H71	H	0.341798	-0.115883	0.000017
H72	H	1.036500	-0.462446	-0.000055
H73	H	0.174868	0.151425	-0.000030
H74	H	1.097445	-0.600099	-0.000007
H75	H	0.324957	0.143728	-0.000060
Br76	Br	0.824532	0.175542	0.680722
H77	H	0.837834	-0.548429	-0.000046
H78	H	0.801369	-0.168494	-0.000019
