data_functionalizedCrystal
_audit_creation_method	'MofGen! by Chris Wilmer'
_symmetry_space_group_name_H-M	'P1'
_symmetry_Int_Tables_number	1
_symmetry_cell_setting	triclinic
loop_
_symmetry_equiv_pos_as_xyz
  x,y,z
_cell_length_a	10.654545
_cell_length_b	10.967829
_cell_length_c	9.130313
_cell_angle_alpha	77.867600
_cell_angle_beta	89.996934
_cell_angle_gamma	84.599203
loop_
_atom_site_label
_atom_site_type_symbol
_atom_site_fract_x
_atom_site_fract_y
_atom_site_fract_z
O1	O	1.667818	0.175251	-0.166014
O2	O	1.302337	0.191956	-0.170236
O3	O	1.493506	0.002025	-0.122289
O4	O	1.476649	0.365181	-0.213961
O5	O	1.493493	0.002020	0.121311
O6	O	1.302324	0.191950	0.073364
O7	O	1.667805	0.175245	0.077586
Cu8	Cu	1.485063	0.183597	0.097718
Cu9	Cu	1.485079	0.183604	-0.190368
O10	O	1.476636	0.365175	0.029639
C11	C	1.255532	0.190727	-0.048128
C12	C	1.116089	0.187061	-0.047204
C13	C	1.050578	0.185332	0.086019
C14	C	0.919559	0.181867	0.086893
C15	C	0.919574	0.181865	-0.178691
C16	C	1.050591	0.185321	-0.179562
C17	C	1.492272	-0.044478	0.011246
C18	C	1.488599	-0.183035	0.046212
C19	C	1.486969	-0.244799	-0.064392
C20	C	1.483173	-0.388004	-0.028255
C21	C	1.714610	0.176473	-0.044526
C22	C	1.854053	0.180139	-0.045458
C23	C	1.477870	0.411678	-0.103899
C24	C	1.481543	0.550235	-0.138875
N25	N	1.485061	0.183592	0.300342
N26	N	1.485090	0.183599	-0.392989
C27	C	1.569740	0.099526	0.398215
C28	C	1.569752	0.099526	0.551552
C29	C	1.400403	0.267669	0.509125
C30	C	1.400386	0.267661	0.355793
H31	H	0.866229	0.180449	-0.286452
H32	H	1.638686	0.031070	0.353072
C33	C	0.847497	0.179968	0.233442
C34	C	0.852165	0.288620	0.315557
C35	C	0.780106	0.286718	0.462114
C36	C	0.703378	0.176163	0.526556
C37	C	0.698708	0.067503	0.444439
C38	C	0.770767	0.069406	0.297883
H39	H	0.908966	0.370466	0.267855
H40	H	0.783564	0.367156	0.522902
H41	H	0.650036	0.174755	0.635046
H42	H	0.641907	-0.014343	0.492142
H43	H	0.767309	-0.011033	0.237095
H44	H	1.103933	0.186726	-0.288054
H45	H	1.481751	-0.441139	0.093198
H46	H	1.103902	0.186749	0.193793
C47	C	1.488883	-0.173020	-0.228463
C48	C	1.597287	-0.204018	-0.330212
C49	C	1.599203	-0.132243	-0.494286
C50	C	1.492715	-0.029469	-0.556611
C51	C	1.384302	0.001534	-0.454860
C52	C	1.382387	-0.070241	-0.290786
H53	H	1.676123	-0.280102	-0.284077
H54	H	1.679457	-0.155194	-0.569609
H55	H	1.494133	0.023664	-0.678069
H56	H	1.305466	0.077618	-0.500995
H57	H	1.302132	-0.047290	-0.215463
C58	C	1.483449	-0.377999	-0.302958
C59	C	1.591848	-0.409001	-0.404713
C60	C	1.593752	-0.337236	-0.568792
C61	C	1.487258	-0.234469	-0.631117
C62	C	1.378852	-0.203461	-0.529361
C63	C	1.376947	-0.275226	-0.365281
H64	H	1.670688	-0.485080	-0.358577
H65	H	1.674002	-0.360191	-0.644119
H66	H	1.488668	-0.181344	-0.752579
H67	H	1.300011	-0.127382	-0.575496
H68	H	1.296697	-0.252271	-0.289955
C69	C	1.662903	0.007057	0.659215
C70	C	1.756059	-0.085393	0.598211
C71	C	1.849213	-0.177868	0.705875
C72	C	1.849211	-0.177893	0.874543
C73	C	1.756051	-0.085439	0.935555
C74	C	1.662898	0.007036	0.827891
H75	H	1.756063	-0.085378	0.473346
H76	H	1.918175	-0.246308	0.660709
H77	H	1.918169	-0.246348	0.954242
H78	H	1.756047	-0.085454	1.060420
H79	H	1.593935	0.075476	0.873057
C80	C	1.307235	0.360140	0.248117
C81	C	1.214148	0.452669	0.309087
C82	C	1.120999	0.545138	0.201411
C83	C	1.120935	0.545079	0.032765
C84	C	1.214025	0.452546	-0.028214
C85	C	1.307175	0.360077	0.079462
H86	H	1.214192	0.452716	0.433937
H87	H	1.052087	0.613637	0.246553
H88	H	1.051980	0.613530	-0.046943
H89	H	1.213981	0.452499	-0.153064
H90	H	1.376086	0.291579	0.034320
H91	H	1.487177	-0.236175	0.167658
H92	H	1.331463	0.336118	0.554289
