data_functionalizedCrystal
_audit_creation_method	'MofGen! by Chris Wilmer'
_symmetry_space_group_name_H-M	'P1'
_symmetry_Int_Tables_number	1
_symmetry_cell_setting	triclinic
loop_
_symmetry_equiv_pos_as_xyz
  x,y,z
_cell_length_a	10.654556
_cell_length_b	23.532357
_cell_length_c	9.730223
_cell_angle_alpha	89.990081
_cell_angle_beta	89.998368
_cell_angle_gamma	83.657914
loop_
_atom_site_label
_atom_site_type_symbol
_atom_site_fract_x
_atom_site_fract_y
_atom_site_fract_z
O1	O	1.665268	0.080004	-0.114257
O2	O	1.299546	0.087621	-0.114273
O3	O	1.493468	0.000951	-0.114236
O4	O	1.471346	0.166674	-0.114293
O5	O	1.493456	0.000948	0.114344
O6	O	1.299534	0.087618	0.114307
O7	O	1.665256	0.080001	0.114323
Zn8	Zn	1.482393	0.083809	0.150607
Zn9	Zn	1.482409	0.083813	-0.150557
O10	O	1.471334	0.166671	0.114287
C11	C	1.252760	0.087059	0.000016
C12	C	1.113371	0.085384	0.000011
C13	C	0.916908	0.083026	-0.124577
C14	C	1.047880	0.084597	-0.124586
C15	C	1.047885	0.084594	0.124625
C16	C	0.916917	0.083019	0.124632
C17	C	1.492909	-0.020271	0.000058
C18	C	1.491245	-0.083500	0.000071
C19	C	1.480808	-0.475578	-0.124602
C20	C	1.479226	-0.534988	-0.124610
O21	O	1.478371	-0.565709	-0.230577
N22	N	1.478435	-0.564706	-0.000013
C23	C	1.479213	-0.535010	0.124600
O24	O	1.478394	-0.565742	0.230579
C25	C	1.480785	-0.475601	0.124607
C26	C	1.481589	-0.445887	0.000001
C27	C	1.481610	-0.445864	-0.249198
C28	C	1.483194	-0.386459	-0.249189
C29	C	1.483975	-0.356767	-0.124586
C30	C	1.483173	-0.386481	0.000010
C31	C	1.481554	-0.445905	0.249218
C32	C	1.483126	-0.386492	0.249214
C33	C	1.483929	-0.356778	0.124609
C34	C	1.485538	-0.297384	0.124622
N35	N	1.486329	-0.267666	0.000025
C36	C	1.485547	-0.297358	-0.124579
C37	C	1.475909	-0.659773	0.124577
C38	C	1.474345	-0.719181	0.124572
C39	C	1.474356	-0.719156	-0.124639
C40	C	1.475928	-0.659746	-0.124632
C41	C	1.476699	-0.630055	-0.000020
C42	C	1.488874	-0.172602	-0.124552
C43	C	1.490464	-0.113192	-0.124532
C44	C	1.490446	-0.113222	0.124678
C45	C	1.488864	-0.172628	0.124659
C46	C	1.488074	-0.202316	0.000033
O47	O	1.486389	-0.266625	0.230534
O48	O	1.486350	-0.266618	-0.230540
C49	C	1.712042	0.080563	0.000032
C50	C	1.851431	0.082238	0.000028
C51	C	1.471893	0.187893	-0.000011
C52	C	1.473557	0.251122	-0.000033
N53	N	1.482391	0.083807	0.356144
N54	N	1.482421	0.083811	-0.356093
C55	C	1.568288	0.045446	0.428086
C56	C	1.568301	0.045446	0.571969
C57	C	1.396515	0.122173	0.571955
C58	C	1.396497	0.122170	0.428074
H59	H	1.491121	-0.089002	-0.226005
O60	O	1.480951	-0.474803	0.370216
C61	C	1.588768	-0.515214	0.377721
H62	H	1.665318	-0.501526	0.307065
H63	H	1.562971	-0.558870	0.344219
C64	C	1.543959	-0.535688	0.613398
C65	C	1.637984	-0.518874	0.526627
H66	H	1.574316	-0.537948	0.705251
H67	H	1.471318	-0.508464	0.608342
H68	H	1.522471	-0.572066	0.585464
H69	H	1.659460	-0.482493	0.554551
H70	H	1.710630	-0.546092	0.531692
H71	H	1.473710	-0.743371	0.226038
H72	H	1.326543	0.153409	0.369495
O73	O	1.483667	-0.357547	-0.370183
C74	C	1.375719	-0.317207	-0.377577
H75	H	1.339812	-0.306281	-0.269360
H76	H	1.298909	-0.335932	-0.438897
C77	C	1.454167	-0.276027	-0.581918
C78	C	1.410072	-0.262603	-0.449003
H79	H	1.475354	-0.242345	-0.625982
H80	H	1.526892	-0.303206	-0.576940
H81	H	1.390151	-0.291632	-0.633000
H82	H	1.474093	-0.247005	-0.397918
H83	H	1.337358	-0.235420	-0.453973
H84	H	0.863593	0.082389	-0.226038
H85	H	1.488225	-0.196767	-0.226034
O86	O	1.313135	0.159518	0.641676
C87	C	1.332824	0.215980	0.606503
H88	H	1.381218	0.216111	0.502030
H89	H	1.395103	0.233860	0.687460
C90	C	1.145392	0.253162	0.728165
C91	C	1.204821	0.253324	0.599844
H92	H	1.066436	0.276199	0.724063
H93	H	1.132129	0.215123	0.751867
H94	H	1.197304	0.268061	0.795616
H95	H	1.152916	0.238419	0.532399
H96	H	1.218072	0.291361	0.576130
O97	O	1.473812	-0.747991	-0.245718
C98	C	1.582954	-0.739486	-0.321540
H99	H	1.659413	-0.727367	-0.248638
H100	H	1.559280	-0.703637	-0.399243
C101	C	1.536962	-0.809874	-0.487418
C102	C	1.630875	-0.794995	-0.397877
H103	H	1.566520	-0.844113	-0.534512
H104	H	1.463428	-0.815603	-0.436339
H105	H	1.517243	-0.779995	-0.552158
H106	H	1.650581	-0.824869	-0.333130
H107	H	1.704413	-0.789272	-0.448948
H108	H	1.638244	0.014208	0.630540
O109	O	1.651517	0.008131	0.358091
C110	C	1.584670	-0.027297	0.274968
H111	H	1.486140	-0.005009	0.253385
H112	H	1.576629	-0.069403	0.330500
C113	C	1.776624	-0.066597	0.164817
C114	C	1.655611	-0.039221	0.138299
H115	H	1.820385	-0.073955	0.080515
H116	H	1.821661	-0.042730	0.220822
H117	H	1.769906	-0.101683	0.211097
H118	H	1.662331	-0.004133	0.092036
H119	H	1.610576	-0.063082	0.082283
H120	H	1.491088	-0.089037	0.226127
H121	H	1.101186	0.085238	-0.226051
H122	H	0.863604	0.082377	0.226106
H123	H	1.480969	-0.470033	-0.350670
O124	O	1.111662	0.085284	0.245571
C125	C	1.202258	0.036955	0.253058
H126	H	1.226829	0.020776	0.144879
H127	H	1.162192	0.001872	0.314567
C128	C	1.291975	0.073279	0.457147
C129	C	1.322161	0.053412	0.324279
H130	H	1.365935	0.083429	0.501085
H131	H	1.230936	0.105839	0.452107
H132	H	1.258584	0.044040	0.508387
H133	H	1.355535	0.082653	0.273036
H134	H	1.383208	0.020857	0.329312
H135	H	1.488221	-0.196823	0.226123
H136	H	1.476581	-0.635557	-0.226097
H137	H	1.483735	-0.362319	0.350691
H138	H	1.476540	-0.635602	0.226058
