data_functionalizedCrystal
_audit_creation_method	'MofGen! by Chris Wilmer'
_symmetry_space_group_name_H-M	'P1'
_symmetry_Int_Tables_number	1
_symmetry_cell_setting	triclinic
loop_
_symmetry_equiv_pos_as_xyz
  x,y,z
_cell_length_a	12.759401
_cell_length_b	16.994731
_cell_length_c	12.759393
_cell_angle_alpha	89.959501
_cell_angle_beta	90.019613
_cell_angle_gamma	89.947758
loop_
_atom_site_label
_atom_site_type_symbol
_atom_site_fract_x
_atom_site_fract_y
_atom_site_fract_z
Zn1	Zn	1.606746	-0.313977	0.594539
Zn2	Zn	1.606846	-0.445904	0.419080
Zn3	Zn	1.431048	-0.314019	0.418875
Zn4	Zn	1.431242	-0.445844	0.594718
O5	O	1.518971	-0.379936	0.506803
O6	O	1.753780	-0.331485	0.571275
O7	O	1.583487	-0.428452	0.272032
O8	O	1.454231	-0.203632	0.442016
O9	O	1.753854	-0.428412	0.442366
O10	O	1.583316	-0.203601	0.571076
O11	O	1.454329	-0.331556	0.271881
O12	O	1.284053	-0.331497	0.442190
O13	O	1.454563	-0.428309	0.741715
O14	O	1.284196	-0.428349	0.571381
O15	O	1.583504	-0.331427	0.741584
O16	O	1.583676	-0.556278	0.442540
O17	O	1.454660	-0.556233	0.571580
C18	C	1.246003	-0.379922	0.506783
C19	C	1.129227	-0.379935	0.506800
C20	C	1.519028	-0.674196	0.506880
C21	C	1.519120	-0.584874	0.507019
Zn22	Zn	1.606530	-0.813988	0.418706
Zn23	Zn	1.606724	-0.946111	0.594152
Zn24	Zn	1.430735	-0.945636	0.418779
Zn25	Zn	1.431218	-0.814008	0.594635
O26	O	1.518802	-0.879936	0.506568
O27	O	1.753576	-0.831705	0.441746
O28	O	1.583258	-1.056429	0.570717
O29	O	1.453772	-0.927965	0.271749
O30	O	1.753719	-0.928776	0.570646
O31	O	1.582927	-0.831244	0.271695
O32	O	1.453960	-1.056080	0.441871
O33	O	1.283779	-0.927984	0.442340
O34	O	1.454594	-0.703624	0.571469
O35	O	1.284133	-0.831278	0.571540
O36	O	1.583395	-0.703610	0.442215
O37	O	1.583726	-0.928795	0.741237
O38	O	1.454782	-0.831738	0.741592
C39	C	1.074407	-0.430323	0.439585
C40	C	0.964682	-0.430337	0.439603
C41	C	0.964608	-0.329566	0.574054
C42	C	1.074330	-0.329557	0.574040
C43	C	1.129303	-0.480701	0.372345
C44	C	1.074483	-0.531093	0.305124
C45	C	0.964758	-0.531106	0.305142
C46	C	0.909855	-0.480728	0.372381
C47	C	1.793004	-0.379951	0.506823
C48	C	1.909781	-0.379957	0.506832
C49	C	1.519044	-0.379856	0.780836
C50	C	1.519075	-0.379822	0.897613
C51	C	1.518733	-0.174195	0.506500
C52	C	1.518634	-0.084873	0.506370
C53	C	1.518958	-0.379958	0.233836
C54	C	1.519130	-0.379770	0.117059
C55	C	1.586225	-0.329371	0.952408
C56	C	1.586249	-0.329343	1.062132
C57	C	1.451973	-0.430223	1.062256
C58	C	1.451944	-0.430247	0.952534
C59	C	1.653356	-0.278946	0.897487
C60	C	1.720512	-0.228492	0.952282
C61	C	1.720537	-0.228463	1.062006
C62	C	1.653406	-0.278889	1.116935
C63	C	1.245835	-0.879581	0.507001
C64	C	1.129058	-0.879410	0.507211
C65	C	1.519330	-0.880322	0.779535
C66	C	1.519587	-0.880511	0.896311
C67	C	1.792835	-0.880291	0.506134
C68	C	1.909611	-0.880443	0.505949
C69	C	1.518274	-0.879550	0.232535
C70	C	1.518049	-0.879385	0.115758
C71	C	1.074409	-0.829059	0.574675
C72	C	0.964685	-0.828891	0.574854
C73	C	0.964270	-0.929432	0.440100
C74	C	1.073992	-0.929596	0.439917
C75	C	1.129475	-0.778873	0.641969
C76	C	1.074825	-0.728518	0.709440
C77	C	0.965101	-0.728350	0.709618
C78	C	0.910027	-0.778537	0.642325
C79	C	1.586890	-0.931090	0.950954
C80	C	1.587131	-0.931260	1.060678
C81	C	1.452755	-0.830271	1.061107
C82	C	1.452521	-0.830097	0.951385
C83	C	1.653956	-0.981503	0.895880
C84	C	1.721264	-1.032087	0.950522
C85	C	1.721505	-1.032258	1.060246
C86	C	1.654437	-0.981845	1.115328
H87	H	1.218646	-0.480693	0.372320
H88	H	1.775160	-0.187432	0.907552
Br89	Br	1.812859	-1.100898	1.134402
Br90	Br	1.361739	-0.761859	1.135860
H91	H	1.119192	-0.572114	0.250387
Br92	Br	1.654779	-0.982067	1.264240
H93	H	0.920127	-0.572143	0.250415
Br94	Br	0.761115	-0.778297	0.642556
H95	H	0.820510	-0.480748	0.372398
H96	H	0.919420	-0.970293	0.385316
Br97	Br	0.890097	-0.261200	0.665301
Br98	Br	1.361185	-0.761449	0.877221
H99	H	1.653346	-0.278966	0.808144
Br100	Br	1.811675	-0.159992	1.136370
Br101	Br	1.149565	-0.660402	0.800748
H102	H	1.653419	-0.278853	1.206280
H103	H	1.118966	-0.288524	0.628770
Br104	Br	1.148167	-0.997937	0.348365
Br105	Br	1.653629	-0.981278	0.746969
Br106	Br	1.812294	-1.100490	0.875773
H107	H	1.397249	-0.471317	0.907919
Br108	Br	1.360876	-0.498656	1.136802
H109	H	0.920608	-0.687343	0.764548
Br110	Br	1.278385	-0.779104	0.641738
