data_functionalizedCrystal
_audit_creation_method	'MofGen! by Chris Wilmer'
_symmetry_space_group_name_H-M	'P1'
_symmetry_Int_Tables_number	1
_symmetry_cell_setting	triclinic
loop_
_symmetry_equiv_pos_as_xyz
  x,y,z
_cell_length_a	19.805407
_cell_length_b	16.959454
_cell_length_c	19.805399
_cell_angle_alpha	89.977613
_cell_angle_beta	89.980427
_cell_angle_gamma	90.020075
loop_
_atom_site_label
_atom_site_type_symbol
_atom_site_fract_x
_atom_site_fract_y
_atom_site_fract_z
Zn1	Zn	1.034765	-0.314700	-0.382744
Zn2	Zn	1.034693	-0.446882	-0.269566
Zn3	Zn	0.921580	-0.314722	-0.269569
Zn4	Zn	0.921556	-0.446840	-0.382713
O5	O	0.978149	-0.380786	-0.326148
O6	O	1.129472	-0.332243	-0.367743
O7	O	1.019668	-0.429378	-0.174850
O8	O	0.936635	-0.204108	-0.284596
O9	O	1.129419	-0.429356	-0.284591
O10	O	1.019792	-0.204092	-0.367745
O11	O	0.936564	-0.332280	-0.174852
O12	O	0.826860	-0.332239	-0.284565
O13	O	0.936594	-0.429285	-0.477434
O14	O	0.826843	-0.429306	-0.367692
O15	O	1.019768	-0.332202	-0.477457
O16	O	1.019645	-0.557488	-0.284561
O17	O	0.936524	-0.557457	-0.367690
C18	C	0.802293	-0.380771	-0.326126
C19	C	0.727061	-0.380783	-0.326133
C20	C	0.691725	-0.431402	-0.369347
C21	C	0.621037	-0.431404	-0.369356
C22	C	0.585685	-0.380790	-0.326148
C23	C	0.621026	-0.330165	-0.282932
C24	C	0.691713	-0.330160	-0.282926
C25	C	0.335952	-0.330183	-0.282954
C26	C	0.265260	-0.330193	-0.282962
C27	C	0.265276	-0.431426	-0.369384
C28	C	0.335963	-0.431421	-0.369379
C29	C	0.371298	-0.380794	-0.326166
C30	C	0.447946	-0.380792	-0.326157
C31	C	0.509038	-0.380795	-0.326153
C32	C	0.978092	-0.586152	-0.326136
C33	C	0.978130	-0.674009	-0.326154
C34	C	0.934930	-1.045498	-0.369428
C35	C	1.021555	-1.045470	-0.282937
C36	C	1.021532	-0.962925	-0.282930
C37	C	0.978206	-0.921662	-0.326173
C38	C	0.934904	-0.962945	-0.369422
C39	C	1.064828	-0.921635	-0.239677
C40	C	1.064806	-0.839085	-0.239669
C41	C	1.021483	-0.797820	-0.282915
C42	C	0.978180	-0.839108	-0.326167
C43	C	0.934854	-0.797845	-0.369409
C44	C	0.891553	-0.839132	-0.412665
C45	C	0.891581	-0.921680	-0.412669
C46	C	1.021455	-0.715272	-0.282911
C47	C	0.934827	-0.715292	-0.369403
C48	C	1.154691	-0.380802	-0.326170
C49	C	1.229923	-0.380808	-0.326180
C50	C	0.978187	-0.380736	-0.502691
C51	C	0.978203	-0.380715	-0.577923
C52	C	0.978224	-0.174618	-0.326174
C53	C	0.978256	-0.086761	-0.326186
C54	C	1.021513	-0.330161	-0.613280
C55	C	1.021520	-0.330138	-0.683968
C56	C	0.978220	-0.380674	-0.719298
C57	C	0.934905	-0.431230	-0.683936
C58	C	0.934895	-0.431248	-0.613249
C59	C	0.934943	-0.431156	-0.969010
C60	C	0.934958	-0.431135	-1.039702
C61	C	1.021568	-0.330046	-1.039729
C62	C	1.021558	-0.330065	-0.969042
C63	C	0.978241	-0.380617	-0.933686
C64	C	0.978233	-0.380641	-0.857037
C65	C	0.978230	-0.380655	-0.795946
C66	C	0.978150	-0.380779	-0.150292
C67	C	0.978265	-0.380577	-0.075060
H68	H	0.236479	-0.288972	-0.247776
H69	H	1.056707	-0.681660	-0.247691
H70	H	1.056836	-0.288881	-1.068524
O71	O	0.892905	-0.480475	-0.578927
C72	C	0.859986	-0.614933	-0.557296
C73	C	0.907592	-0.559273	-0.596197
H74	H	0.871834	-0.678652	-0.571255
H75	H	0.867424	-0.606331	-0.500699
H76	H	0.805417	-0.601012	-0.571171
H77	H	0.962179	-0.573160	-0.582378
H78	H	0.900096	-0.567885	-0.652784
H79	H	0.899695	-0.472289	-1.068466
O80	O	1.063597	-0.280996	-0.579068
C81	C	1.149532	-0.180754	-0.586564
C82	C	1.101896	-0.236384	-0.625390
H83	H	1.180519	-0.144682	-0.623999
H84	H	1.118500	-0.139376	-0.553488
H85	H	1.184877	-0.217067	-0.553454
H86	H	1.066541	-0.200134	-0.658537
H87	H	1.132970	-0.277764	-0.658423
H88	H	0.720503	-0.472621	-0.404530
H89	H	1.056825	-1.079072	-0.247726
O90	O	1.106902	-0.798895	-0.197751
C91	C	1.198292	-0.705663	-0.188733
C92	C	1.150649	-0.751117	-0.236277
H93	H	1.233683	-0.667037	-0.219863
H94	H	1.167265	-0.667005	-0.153320
H95	H	1.229230	-0.749350	-0.157811
H96	H	1.119700	-0.707487	-0.267243
H97	H	1.181714	-0.789787	-0.271645
O98	O	0.892964	-1.085686	-0.411477
C99	C	0.883837	-1.178799	-0.502891
C100	C	0.931439	-1.133349	-0.455303
H101	H	0.914926	-1.217333	-0.538346
H102	H	0.848487	-1.217550	-0.471825
H103	H	0.852852	-1.135111	-0.533763
H104	H	0.962469	-1.176981	-0.424421
H105	H	0.966744	-1.094586	-0.486408
O106	O	1.106831	-0.961839	-0.197679
C107	C	1.145096	-1.089003	-0.159198
C108	C	1.097541	-1.043567	-0.206846
H109	H	1.137591	-1.155088	-0.166583
H110	H	1.199705	-1.072830	-0.171051
H111	H	1.133162	-1.072719	-0.104643
H112	H	1.109413	-1.059827	-0.261416
H113	H	1.042945	-1.059744	-0.194935
O114	O	0.849372	-0.799083	-0.454600
C115	C	0.734217	-0.773933	-0.487382
C116	C	0.781906	-0.819325	-0.439838
H117	H	0.679662	-0.790294	-0.475474
H118	H	0.741577	-0.707832	-0.479941
H119	H	0.746115	-0.790108	-0.541967
H120	H	0.770038	-0.803216	-0.385234
H121	H	0.774537	-0.885415	-0.447338
H122	H	0.364713	-0.288965	-0.247763
O123	O	1.063492	-0.280939	-0.718339
C124	C	1.072643	-0.174213	-0.798176
C125	C	1.025033	-0.229879	-0.759285
H126	H	1.041569	-0.132928	-0.831301
H127	H	1.103574	-0.138045	-0.760808
H128	H	1.108043	-0.210503	-0.831248
H129	H	0.989593	-0.193650	-0.726213
H130	H	0.994150	-0.266050	-0.796691
H131	H	0.236498	-0.472646	-0.404573
H132	H	0.856327	-0.955303	-0.447884
O133	O	0.726069	-0.280907	-0.241042
C134	C	0.805927	-0.174199	-0.232083
C135	C	0.767052	-0.229921	-0.279593
H136	H	0.839082	-0.132974	-0.263231
H137	H	0.768549	-0.137969	-0.201213
H138	H	0.838968	-0.210448	-0.196622
H139	H	0.734010	-0.193733	-0.315095
H140	H	0.804467	-0.266154	-0.310416
O141	O	1.063641	-0.280900	-0.934828
C142	C	1.149575	-0.180656	-0.942317
C143	C	1.101941	-0.236285	-0.981147
H144	H	1.180563	-0.144583	-0.979749
H145	H	1.118541	-0.139280	-0.909242
H146	H	1.184919	-0.216970	-0.909206
H147	H	1.066587	-0.200036	-1.014295
H148	H	1.133017	-0.277664	-1.014179
O149	O	0.586583	-0.281068	-0.240984
C150	C	0.477681	-0.236169	-0.202723
C151	C	0.516601	-0.291825	-0.250252
H152	H	0.421094	-0.244834	-0.210210
H153	H	0.491501	-0.249960	-0.148108
H154	H	0.491642	-0.172460	-0.214698
H155	H	0.502660	-0.355552	-0.238338
H156	H	0.502777	-0.277966	-0.304853
H157	H	0.592269	-0.472623	-0.404545
H158	H	0.899682	-0.472330	-0.940231
O159	O	0.892905	-0.480293	-0.718358
C160	C	0.854505	-0.525035	-0.827241
C161	C	0.902115	-0.469442	-0.788345
H162	H	0.861924	-0.516270	-0.883832
H163	H	0.866364	-0.588794	-0.813386
H164	H	0.799938	-0.511159	-0.813293
H165	H	0.956697	-0.483246	-0.802272
H166	H	0.890197	-0.405700	-0.802204
H167	H	0.364743	-0.472639	-0.404561
O168	O	0.892707	-0.675126	-0.411317
C169	C	0.801257	-0.582041	-0.420332
C170	C	0.848926	-0.627464	-0.372789
H171	H	0.765839	-0.543508	-0.389200
H172	H	0.832261	-0.543292	-0.455737
H173	H	0.770349	-0.625747	-0.451261
H174	H	0.879844	-0.583815	-0.341816
H175	H	0.817883	-0.666225	-0.337428
