data_functionalizedCrystal
_audit_creation_method	'MofGen! by Chris Wilmer'
_symmetry_space_group_name_H-M	'P1'
_symmetry_Int_Tables_number	1
_symmetry_cell_setting	triclinic
loop_
_symmetry_equiv_pos_as_xyz
  x,y,z
_cell_length_a	12.759401
_cell_length_b	12.594516
_cell_length_c	12.594510
_cell_angle_alpha	89.967679
_cell_angle_beta	89.980999
_cell_angle_gamma	90.017577
loop_
_atom_site_label
_atom_site_type_symbol
_atom_site_fract_x
_atom_site_fract_y
_atom_site_fract_z
Zn1	Zn	1.606236	-0.423602	-0.601815
Zn2	Zn	1.606129	-0.601632	-0.423843
Zn3	Zn	1.430541	-0.423672	-0.423850
Zn4	Zn	1.430523	-0.601544	-0.601779
O5	O	1.518357	-0.512613	-0.512822
O6	O	1.753243	-0.447226	-0.578218
O7	O	1.582800	-0.578091	-0.274898
O8	O	1.453900	-0.274717	-0.447476
O9	O	1.753165	-0.578023	-0.447463
O10	O	1.582983	-0.274666	-0.578226
O11	O	1.453796	-0.447345	-0.274903
O12	O	1.283518	-0.447260	-0.447441
O13	O	1.453869	-0.577874	-0.750730
O14	O	1.283504	-0.577942	-0.578165
O15	O	1.582965	-0.447141	-0.750756
O16	O	1.582782	-0.750566	-0.447428
O17	O	1.453765	-0.750501	-0.578158
C18	C	1.245390	-0.512600	-0.512801
C19	C	1.128613	-0.512620	-0.512817
C20	C	1.073772	-0.580769	-0.580778
C21	C	0.964048	-0.580773	-0.580799
C22	C	0.964016	-0.444475	-0.444889
C23	C	1.073738	-0.444467	-0.444874
C24	C	1.518289	-0.789154	-0.512811
C25	C	1.518355	-0.907459	-0.512843
C26	C	1.448176	-0.976716	-0.583896
C27	C	1.422578	-1.047592	-0.486774
C28	C	1.544049	-1.047382	-0.609981
C29	C	1.492707	-0.976777	-0.415669
C30	C	1.614222	-0.976560	-0.538942
C31	C	1.588661	-1.047405	-0.441753
C32	C	1.792391	-0.512626	-0.512844
C33	C	1.909167	-0.512632	-0.512853
C34	C	1.518427	-0.512490	-0.790443
C35	C	1.518456	-0.512437	-0.908748
C36	C	1.518455	-0.234992	-0.512856
C37	C	1.518497	-0.116686	-0.512870
C38	C	1.588693	-0.441327	-0.978016
C39	C	1.492871	-0.415276	-1.048809
C40	C	1.614334	-0.538413	-1.048754
C41	C	1.422584	-0.486337	-0.977984
C42	C	1.544111	-0.609519	-0.977922
C43	C	1.448224	-0.583506	-1.048684
C44	C	1.518349	-0.512658	-0.236281
C45	C	1.518523	-0.512411	-0.117976
H46	H	1.388721	-0.945676	-0.643897
H47	H	1.471194	-0.333165	-1.079947
H48	H	1.695388	-0.560393	-1.079844
H49	H	1.118392	-0.388965	-0.389533
H50	H	1.565723	-1.078396	-0.692120
H51	H	1.647984	-0.381155	-0.946983
H52	H	0.919324	-0.388989	-0.389571
H53	H	1.341571	-1.078816	-0.464721
H54	H	1.118448	-0.636261	-0.636104
H55	H	1.470938	-0.945891	-0.333508
H56	H	1.648070	-1.078247	-0.381607
H57	H	1.695211	-0.945340	-0.561041
H58	H	1.341506	-0.464261	-0.947027
H59	H	1.388787	-0.643631	-1.079517
H60	H	1.565817	-0.691607	-0.946764
H61	H	0.919401	-0.636266	-0.636141
