data_functionalizedCrystal
_audit_creation_method	'MofGen! by Chris Wilmer'
_symmetry_space_group_name_H-M	'P1'
_symmetry_Int_Tables_number	1
_symmetry_cell_setting	triclinic
loop_
_symmetry_equiv_pos_as_xyz
  x,y,z
_cell_length_a	8.559649
_cell_length_b	13.101039
_cell_length_c	8.559649
_cell_angle_alpha	87.109304
_cell_angle_beta	69.778664
_cell_angle_gamma	92.882768
loop_
_atom_site_label
_atom_site_type_symbol
_atom_site_fract_x
_atom_site_fract_y
_atom_site_fract_z
O1	O	2.136903	0.085199	-0.065082
O2	O	1.661418	0.085203	0.018699
O3	O	1.941051	0.085199	-0.260934
O4	O	1.857270	0.085202	0.214551
O5	O	1.920984	-0.085230	-0.240841
O6	O	1.641351	-0.085227	0.038792
O7	O	2.116836	-0.085231	-0.044989
Zn8	Zn	1.875908	-0.112288	0.000091
Zn9	Zn	1.902347	0.112260	-0.026382
O10	O	1.837203	-0.085228	0.234643
C11	C	1.591076	-0.000012	0.035094
C12	C	1.411377	-0.000010	0.053993
N13	N	1.857876	-0.265537	0.018156
C14	C	1.833340	-0.474579	0.042749
C15	C	1.944922	-0.525456	-0.069048
C16	C	1.931271	-0.641774	-0.055364
C17	C	1.846990	-0.358250	0.029068
C18	C	2.187178	-0.000014	-0.061385
C19	C	2.366878	-0.000009	-0.080285
C20	C	1.937367	-0.000014	-0.311197
C21	C	1.956267	-0.000008	-0.490897
N22	N	1.920393	0.265508	-0.044461
C23	C	1.840888	-0.000012	0.284906
C24	C	1.821989	-0.000011	0.464605
H25	H	1.466257	-0.000005	-0.209705
C26	C	1.277133	-0.000003	0.228844
H27	H	1.329147	0.000005	0.310547
H28	H	1.202715	-0.059431	0.248943
H29	H	1.216733	0.059442	0.234916
C30	C	1.647151	-0.000000	-0.401154
H31	H	1.656958	0.000014	-0.293937
H32	H	1.581312	-0.059430	-0.406326
H33	H	1.595329	0.059442	-0.420361
H34	H	2.050704	-0.481655	-0.175036
C35	C	1.690461	-0.533742	0.185934
H36	H	1.699931	-0.605292	0.176469
H37	H	1.586304	-0.516235	0.179729
H38	H	1.697031	-0.516219	0.289950
C39	C	2.131115	-0.000009	-0.625148
H40	H	2.121313	-0.000006	-0.732369
H41	H	2.182958	-0.059437	-0.605948
H42	H	2.196934	0.059436	-0.619968
