data_functionalizedCrystal
_audit_creation_method	'MofGen! by Chris Wilmer'
_symmetry_space_group_name_H-M	'P1'
_symmetry_Int_Tables_number	1
_symmetry_cell_setting	triclinic
loop_
_symmetry_equiv_pos_as_xyz
  x,y,z
_cell_length_a	11.169417
_cell_length_b	21.295417
_cell_length_c	11.169409
_cell_angle_alpha	90.041399
_cell_angle_beta	90.019824
_cell_angle_gamma	90.031386
loop_
_atom_site_label
_atom_site_type_symbol
_atom_site_fract_x
_atom_site_fract_y
_atom_site_fract_z
Zn1	Zn	1.834794	-0.250543	0.678467
Zn2	Zn	1.834613	-0.355832	0.477752
Zn3	Zn	1.634080	-0.250582	0.477802
Zn4	Zn	1.634017	-0.355780	0.678397
O5	O	1.734376	-0.303184	0.578105
O6	O	2.002720	-0.264516	0.651851
O7	O	1.807962	-0.341908	0.309809
O8	O	1.660807	-0.162487	0.504470
O9	O	2.002587	-0.341870	0.504386
O10	O	1.808271	-0.162459	0.651898
O11	O	1.660632	-0.264581	0.309845
O12	O	1.466122	-0.264531	0.504402
O13	O	1.660700	-0.341783	0.846356
O14	O	1.466076	-0.341820	0.651779
O15	O	1.808210	-0.264466	0.846408
O16	O	1.807901	-0.443914	0.504318
O17	O	1.660524	-0.443877	0.651731
C18	C	1.422551	-0.303175	0.578089
C19	C	1.289151	-0.303186	0.578111
C20	C	1.734219	-0.466736	0.578038
C21	C	1.734261	-0.536704	0.578050
C22	C	1.811069	-0.569569	0.501371
C23	C	1.811125	-0.635312	0.501398
C24	C	1.734352	-0.668187	0.578091
C25	C	1.657539	-0.635313	0.654785
C26	C	1.657494	-0.569572	0.654765
N27	N	1.629362	-0.771452	0.587235
N28	N	1.629409	-0.833904	0.587248
C29	C	1.734487	-0.866261	0.578160
N30	N	1.839518	-0.833808	0.569035
N31	N	1.839470	-0.771351	0.569016
C32	C	1.734394	-0.739472	0.578123
C33	C	1.811362	-0.970412	0.501506
C34	C	1.811420	-1.036156	0.501541
C35	C	1.657824	-1.036156	0.654923
C36	C	1.657776	-0.970413	0.654894
C37	C	1.734543	-0.937546	0.578179
C38	C	2.047418	-0.303194	0.578121
C39	C	2.180818	-0.303199	0.578128
C40	C	1.734468	-0.303114	0.891147
C41	C	1.734507	-0.303085	1.024547
C42	C	1.734567	-0.138994	0.578198
C43	C	1.734648	-0.069026	0.578237
C44	C	1.734353	-0.303209	0.266280
C45	C	1.734547	-0.303061	0.132880
H46	H	1.873580	-0.542810	0.438908
C47	C	1.573381	-1.072310	0.739290
H48	H	1.584404	-1.116171	0.728319
H49	H	1.590898	-1.061488	0.819939
H50	H	1.492737	-1.061585	0.721648
C51	C	1.573090	-0.671472	0.739144
H52	H	1.584108	-0.715333	0.728166
H53	H	1.590604	-0.660654	0.819795
H54	H	1.492448	-0.660744	0.721499
H55	H	1.873675	-0.662076	0.438956
C56	C	1.895912	-1.072308	0.417189
H57	H	1.941613	-1.043315	0.371493
H58	H	1.948205	-1.097906	0.463146
H59	H	1.850033	-1.098000	0.364866
C60	C	1.895813	-0.934252	0.417143
H61	H	1.884776	-0.890391	0.428102
H62	H	1.976449	-0.944978	0.434786
H63	H	1.878297	-0.945073	0.336486
C64	C	1.572996	-0.533419	0.739109
H65	H	1.527275	-0.562411	0.784787
H66	H	1.618859	-0.507724	0.791429
H67	H	1.520702	-0.507823	0.693134
C68	C	1.573281	-0.934257	0.739231
H69	H	1.584255	-0.890396	0.728242
H70	H	1.492657	-0.945077	0.721604
H71	H	1.590821	-0.944985	0.819893
