data_functionalizedCrystal
_audit_creation_method	'MofGen! by Chris Wilmer'
_symmetry_space_group_name_H-M	'P1'
_symmetry_Int_Tables_number	1
_symmetry_cell_setting	triclinic
loop_
_symmetry_equiv_pos_as_xyz
  x,y,z
_cell_length_a	17.077402
_cell_length_b	25.639243
_cell_length_c	25.639234
_cell_angle_alpha	89.986394
_cell_angle_beta	90.017557
_cell_angle_gamma	89.973827
loop_
_atom_site_label
_atom_site_type_symbol
_atom_site_fract_x
_atom_site_fract_y
_atom_site_fract_z
Zn1	Zn	-0.312529	-0.799268	0.295669
Zn2	Zn	0.020804	-0.465935	0.629003
Zn3	Zn	0.354137	-0.132601	0.962336
Zn4	Zn	-0.443781	-0.799218	0.208239
Zn5	Zn	-0.110448	-0.465885	0.541572
Zn6	Zn	0.222885	-0.132552	0.874906
Zn7	Zn	-0.312540	-0.711848	0.208243
Zn8	Zn	0.020794	-0.378515	0.541576
Zn9	Zn	0.354127	-0.045181	0.874909
Zn10	Zn	-0.443763	-0.711812	0.295638
Zn11	Zn	-0.110430	-0.378479	0.628972
Zn12	Zn	0.222904	-0.045146	0.962305
O13	O	-0.378153	-0.755537	0.251947
O14	O	-0.044820	-0.422203	0.585281
O15	O	0.288513	-0.088870	0.918614
O16	O	-0.329943	-0.872426	0.284083
O17	O	0.003390	-0.539093	0.617416
O18	O	0.336723	-0.205760	0.950750
O19	O	-0.426384	-0.787622	0.135074
O20	O	-0.093050	-0.454289	0.468408
O21	O	0.240283	-0.120956	0.801741
O22	O	-0.202691	-0.723480	0.219855
O23	O	0.130642	-0.390147	0.553188
O24	O	0.463975	-0.056813	0.886521
O25	O	-0.426374	-0.872390	0.219848
O26	O	-0.093040	-0.539057	0.553182
O27	O	0.240293	-0.205723	0.886515
O28	O	-0.202684	-0.787707	0.284086
O29	O	0.130650	-0.454374	0.617420
O30	O	0.463983	-0.121040	0.950753
O31	O	-0.329961	-0.723432	0.135077
O32	O	0.003372	-0.390098	0.468410
O33	O	0.336706	-0.056765	0.801744
O34	O	-0.329943	-0.638678	0.219825
O35	O	0.003390	-0.305345	0.553158
O36	O	0.336723	0.027989	0.886491
O37	O	-0.426343	-0.723420	0.368808
O38	O	-0.093009	-0.390086	0.702141
O39	O	0.240324	-0.056753	1.035474
O40	O	-0.426353	-0.638652	0.284034
O41	O	-0.093019	-0.305319	0.617367
O42	O	0.240314	0.028015	0.950700
O43	O	-0.329926	-0.787673	0.368830
O44	O	0.003408	-0.454339	0.702164
O45	O	0.336741	-0.121006	1.035497
O46	O	-0.553626	-0.787588	0.219818
O47	O	-0.220292	-0.454255	0.553152
O48	O	0.113041	-0.120921	0.886485
O49	O	-0.553612	-0.723371	0.284030
O50	O	-0.220279	-0.390038	0.617363
O51	O	0.113054	-0.056705	0.950697
C52	C	-0.378148	-0.619694	0.251926
C53	C	-0.044814	-0.286361	0.585260
C54	C	0.288519	0.046973	0.918593
C55	C	-0.378164	-0.561580	0.251930
C56	C	-0.044831	-0.228247	0.585263
C57	C	0.288502	0.105087	0.918597
C58	C	-0.582101	-0.755485	0.251932
C59	C	-0.248768	-0.422151	0.585265
C60	C	0.084565	-0.088818	0.918598
C61	C	-0.669351	-0.755510	0.251943
C62	C	-0.336018	-0.422177	0.585276
C63	C	-0.002684	-0.088844	0.918609
C64	C	-0.328020	-0.201230	0.285450
C65	C	0.005313	0.132103	0.618783
C66	C	0.338646	0.465436	0.952116
C67	C	-0.328020	-0.146626	0.285453
C68	C	0.005314	0.186707	0.618786
C69	C	0.338647	0.520041	0.952119
O70	O	-0.285371	-0.118401	0.313927
O71	O	0.047962	0.214933	0.647260
O72	O	0.381296	0.548266	0.980593
N73	N	-0.378150	-0.119298	0.251961
N74	N	-0.044817	0.214036	0.585295
N75	N	0.288516	0.547369	0.918628
C76	C	-0.428279	-0.146576	0.218460
C77	C	-0.094946	0.186757	0.551794
C78	C	0.238387	0.520091	0.885127
O79	O	-0.470919	-0.118317	0.189973
O80	O	-0.137585	0.215016	0.523306
O81	O	0.195748	0.548350	0.856640
C82	C	-0.428276	-0.201179	0.218455
C83	C	-0.094942	0.132154	0.551788
C84	C	0.238391	0.465487	0.885122
C85	C	-0.378147	-0.228505	0.251953
C86	C	-0.044814	0.104828	0.585286
C87	C	0.288519	0.438162	0.918619
C88	C	-0.277895	-0.228556	0.318944
C89	C	0.055438	0.104777	0.652277
C90	C	0.388771	0.438111	0.985611
C91	C	-0.277897	-0.283157	0.318941
C92	C	0.055436	0.050177	0.652275
C93	C	0.388769	0.383510	0.985608
C94	C	-0.328024	-0.310431	0.285444
C95	C	0.005309	0.022902	0.618778
C96	C	0.338642	0.356235	0.952111
C97	C	-0.378149	-0.283106	0.251950
C98	C	-0.044816	0.050228	0.585283
C99	C	0.288518	0.383561	0.918617
C100	C	-0.478400	-0.228457	0.184952
C101	C	-0.145067	0.104876	0.518285
C102	C	0.188267	0.438210	0.851619
C103	C	-0.478391	-0.283064	0.184949
C104	C	-0.145058	0.050269	0.518283
C105	C	0.188275	0.383603	0.851616
C106	C	-0.428263	-0.310390	0.218447
C107	C	-0.094930	0.022944	0.551780
C108	C	0.238404	0.356277	0.885113
C109	C	-0.428278	-0.364981	0.218450
C110	C	-0.094945	-0.031648	0.551784
C111	C	0.238389	0.301686	0.885117
N112	N	-0.378147	-0.392310	0.251942
N113	N	-0.044814	-0.058976	0.585275
N114	N	0.288519	0.274357	0.918609
C115	C	-0.328020	-0.365035	0.285439
C116	C	0.005313	-0.031701	0.618772
C117	C	0.338646	0.301632	0.952106
C118	C	-0.428283	-0.031906	0.218474
C119	C	-0.094949	0.301428	0.551807
C120	C	0.238384	0.634761	0.885140
C121	C	-0.428291	0.022697	0.218481
C122	C	-0.094958	0.356030	0.551815
C123	C	0.238376	0.689363	0.885148
C124	C	-0.328030	0.022643	0.285473
C125	C	0.005303	0.355976	0.618807
C126	C	0.338637	0.689310	0.952140
C127	C	-0.328026	-0.031960	0.285468
C128	C	0.005307	0.301373	0.618801
C129	C	0.338641	0.634706	0.952135
C130	C	-0.378152	-0.059234	0.251965
C131	C	-0.044819	0.274099	0.585299
C132	C	0.288515	0.607433	0.918632
C133	C	-0.328029	-0.479700	0.285431
C134	C	0.005305	-0.146367	0.618764
C135	C	0.338638	0.186967	0.952098
C136	C	-0.328038	-0.534305	0.285427
C137	C	0.005296	-0.200972	0.618760
C138	C	0.338629	0.132361	0.952094
C139	C	-0.428295	-0.534247	0.218434
C140	C	-0.094962	-0.200913	0.551767
C141	C	0.238371	0.132420	0.885100
C142	C	-0.428290	-0.479646	0.218439
C143	C	-0.094956	-0.146313	0.551773
C144	C	0.238377	0.187020	0.885106
C145	C	-0.378150	-0.452374	0.251940
C146	C	-0.044817	-0.119041	0.585273
C147	C	0.288516	0.214293	0.918607
O148	O	-0.470903	-0.393241	0.189989
O149	O	-0.137569	-0.059908	0.523323
O150	O	0.195764	0.273426	0.856656
O151	O	-0.285381	-0.393300	0.313917
O152	O	0.047953	-0.059967	0.647250
O153	O	0.381286	0.273366	0.980583
C154	C	-0.710270	-0.788935	0.285415
C155	C	-0.376936	-0.455602	0.618748
C156	C	-0.043603	-0.122268	0.952082
C157	C	-0.792250	-0.788957	0.285426
C158	C	-0.458917	-0.455624	0.618760
C159	C	-0.125583	-0.122290	0.952093
C160	C	-0.833310	-0.755556	0.251962
C161	C	-0.499977	-0.422223	0.585295
C162	C	-0.166644	-0.088890	0.918629
C163	C	-0.792386	-0.722128	0.218488
C164	C	-0.459053	-0.388795	0.551821
C165	C	-0.125719	-0.055461	0.885155
C166	C	-0.710407	-0.722104	0.218480
C167	C	-0.377074	-0.388770	0.551813
C168	C	-0.043740	-0.055437	0.885147
C169	C	-0.963256	-0.722182	0.218506
C170	C	-0.629923	-0.388848	0.551840
C171	C	-0.296589	-0.055515	0.885173
C172	C	-1.045241	-0.722206	0.218513
C173	C	-0.711907	-0.388873	0.551847
C174	C	-0.378574	-0.055540	0.885180
C175	C	-1.045099	-0.789035	0.285453
C176	C	-0.711766	-0.455702	0.618786
C177	C	-0.378432	-0.122368	0.952119
C178	C	-0.963120	-0.789011	0.285444
C179	C	-0.629787	-0.455677	0.618778
C180	C	-0.296453	-0.122344	0.952111
C181	C	-0.922201	-0.755583	0.251970
C182	C	-0.588868	-0.422250	0.585303
C183	C	-0.255535	-0.088916	0.918636
C184	C	-0.173409	-0.755603	0.251974
C185	C	0.159924	-0.422270	0.585308
C186	C	0.493258	-0.088936	0.918641
C187	C	-0.086159	-0.755631	0.251986
C188	C	0.247174	-0.422298	0.585319
C189	C	0.580507	-0.088965	0.918653
C190	C	-0.378131	-0.755548	0.388320
C191	C	-0.044798	-0.422214	0.721654
C192	C	0.288536	-0.088881	1.054987
C193	C	-0.378122	-0.755553	0.446434
C194	C	-0.044788	-0.422219	0.779768
C195	C	0.288545	-0.088886	1.113101
C196	C	-0.378159	0.108090	0.251968
C197	C	-0.044826	0.441424	0.585302
C198	C	0.288508	0.774757	0.918635
C199	C	-0.378161	0.049976	0.251977
C200	C	-0.044827	0.383310	0.585310
C201	C	0.288506	0.716643	0.918643
C202	C	-0.378119	-0.755556	0.116105
C203	C	-0.044785	-0.422222	0.449438
C204	C	0.288548	-0.088889	0.782772
C205	C	-0.377907	-0.755652	0.057991
C206	C	-0.044574	-0.422319	0.391324
C207	C	0.288760	-0.088985	0.724658
C208	C	-0.428227	-0.722131	0.697610
C209	C	-0.094894	-0.388797	1.030944
C210	C	0.238439	-0.055464	1.364277
C211	C	-0.428245	-0.722122	0.643006
C212	C	-0.094912	-0.388788	0.976339
C213	C	0.238422	-0.055455	1.309673
O214	O	-0.470925	-0.693655	0.614755
O215	O	-0.137592	-0.360322	0.948088
O216	O	0.195742	-0.026989	1.281421
N217	N	-0.378058	-0.755572	0.615708
N218	N	-0.044725	-0.422239	0.949042
N219	N	0.288608	-0.088906	1.282375
C220	C	-0.327845	-0.789031	0.643018
C221	C	0.005488	-0.455698	0.976351
C222	C	0.338822	-0.122364	1.309685
O223	O	-0.285158	-0.817482	0.614785
O224	O	0.048175	-0.484149	0.948118
O225	O	0.381508	-0.150815	1.281452
C226	C	-0.327824	-0.789037	0.697621
C227	C	0.005509	-0.455704	1.030955
C228	C	0.338843	-0.122370	1.364288
C229	C	-0.378020	-0.755588	0.724916
C230	C	-0.044686	-0.422254	1.058249
C231	C	0.288647	-0.088921	1.391583
C232	C	-0.478418	-0.688684	0.724905
C233	C	-0.145085	-0.355351	1.058239
C234	C	0.188249	-0.022017	1.391572
C235	C	-0.478401	-0.688694	0.779506
C236	C	-0.145068	-0.355361	1.112839
C237	C	0.188265	-0.022027	1.446173
C238	C	-0.428194	-0.722151	0.806812
C239	C	-0.094860	-0.388817	1.140145
C240	C	0.238473	-0.055484	1.473478
C241	C	-0.378003	-0.755598	0.779517
C242	C	-0.044669	-0.422264	1.112850
C243	C	0.288664	-0.088931	1.446183
C244	C	-0.277607	-0.822492	0.724930
C245	C	0.055726	-0.489159	1.058263
C246	C	0.389059	-0.155826	1.391596
C247	C	-0.277590	-0.822495	0.779537
C248	C	0.055743	-0.489162	1.112870
C249	C	0.389077	-0.155829	1.446203
C250	C	-0.327786	-0.789046	0.806832
C251	C	0.005548	-0.455713	1.140165
C252	C	0.338881	-0.122379	1.473498
C253	C	-0.327778	-0.789065	0.861423
C254	C	0.005555	-0.455731	1.194756
C255	C	0.338889	-0.122398	1.528090
N256	N	-0.377965	-0.755614	0.888721
N257	N	-0.044631	-0.422280	1.222054
N258	N	0.288702	-0.088947	1.555387
C259	C	-0.428173	-0.722157	0.861415
C260	C	-0.094839	-0.388824	1.194748
C261	C	0.238494	-0.055490	1.528082
C262	C	-0.327892	-0.789015	0.528347
C263	C	0.005441	-0.455681	0.861681
C264	C	0.338775	-0.122348	1.195014
C265	C	-0.327916	-0.789012	0.473745
C266	C	0.005417	-0.455678	0.807078
C267	C	0.338750	-0.122345	1.140412
C268	C	-0.428316	-0.722102	0.473737
C269	C	-0.094982	-0.388768	0.807070
C270	C	0.238351	-0.055435	1.140404
C271	C	-0.428295	-0.722108	0.528340
C272	C	-0.094961	-0.388774	0.861674
C273	C	0.238372	-0.055441	1.195007
C274	C	-0.378079	-0.755564	0.555645
C275	C	-0.044745	-0.422231	0.888978
C276	C	0.288588	-0.088897	1.222312
C277	C	-0.428134	-0.722181	0.976080
C278	C	-0.094800	-0.388847	1.309413
C279	C	0.238533	-0.055514	1.642747
C280	C	-0.428115	-0.722195	1.030685
C281	C	-0.094781	-0.388862	1.364019
C282	C	0.238552	-0.055529	1.697352
C283	C	-0.327713	-0.789103	1.030689
C284	C	0.005620	-0.455770	1.364022
C285	C	0.338954	-0.122436	1.697355
C286	C	-0.327735	-0.789091	0.976088
C287	C	0.005599	-0.455757	1.309421
C288	C	0.338932	-0.122424	1.642755
C289	C	-0.377948	-0.755625	0.948785
C290	C	-0.044614	-0.422292	1.282118
C291	C	0.288719	-0.088959	1.615452
O292	O	-0.285118	-0.817515	0.889709
O293	O	0.048216	-0.484182	1.223042
O294	O	0.381549	-0.150848	1.556376
O295	O	-0.470845	-0.693706	0.889654
O296	O	-0.137511	-0.360372	1.222988
O297	O	0.195822	-0.027039	1.556321
H298	H	-0.287216	-0.556551	0.312707
H299	H	0.046117	-0.223218	0.646040
H300	H	0.379451	0.110115	0.979373
H301	H	-0.468993	-0.694957	1.052907
H302	H	-0.135660	-0.361623	1.386240
H303	H	0.197673	-0.028290	1.719573
H304	H	-0.676844	-0.816136	0.312663
H305	H	-0.343510	-0.482803	0.645997
H306	H	-0.010177	-0.149469	0.979330
H307	H	-1.078670	-0.695007	0.191266
H308	H	-0.745336	-0.361673	0.524599
H309	H	-0.412003	-0.028340	0.857933
H310	H	-0.287001	-0.816263	0.550575
H311	H	0.046332	-0.482930	0.883909
H312	H	0.379665	-0.149596	1.217242
H313	H	-0.929689	-0.816211	0.312691
H314	H	-0.596356	-0.482877	0.646024
H315	H	-0.263022	-0.149544	0.979358
H316	H	-0.469109	-0.556464	0.191162
H317	H	-0.135776	-0.223130	0.524495
H318	H	0.197558	0.110203	0.857829
H319	H	-0.287198	-0.457501	0.312709
H320	H	0.046135	-0.124168	0.646042
H321	H	0.379469	0.209165	0.979376
H322	H	-0.825562	-0.816179	0.312679
H323	H	-0.492229	-0.482846	0.646012
H324	H	-0.158896	-0.149512	0.979345
H325	H	-0.677092	-0.694885	0.191224
H326	H	-0.343758	-0.361552	0.524557
H327	H	-0.010425	-0.028219	0.857891
H328	H	-0.237076	-0.305400	0.346218
H329	H	0.096257	0.027933	0.679551
H330	H	0.429590	0.361266	1.012884
H331	H	-0.286867	-0.816332	0.953863
H332	H	0.046466	-0.482998	1.287197
H333	H	0.379800	-0.149665	1.620530
H334	H	-0.929943	-0.694959	0.191249
H335	H	-0.596609	-0.361626	0.524583
H336	H	-0.263276	-0.028293	0.857916
H337	H	-0.469015	-0.694925	0.953856
H338	H	-0.135682	-0.361592	1.287190
H339	H	0.197652	-0.028259	1.620523
H340	H	-0.519274	-0.661455	0.801725
H341	H	-0.185940	-0.328121	1.135058
H342	H	0.147393	0.005212	1.468391
H343	H	-0.519303	-0.661436	0.702679
H344	H	-0.185970	-0.328103	1.036012
H345	H	0.147364	0.005231	1.369346
H346	H	-0.236694	-0.849738	0.801765
H347	H	0.096639	-0.516404	1.135099
H348	H	0.429973	-0.183071	1.468432
H349	H	-0.286838	-0.816345	1.052931
H350	H	0.046495	-0.483011	1.386264
H351	H	0.379829	-0.149678	1.719597
H352	H	-0.825824	-0.694930	0.191243
H353	H	-0.492490	-0.361597	0.524576
H354	H	-0.159157	-0.028264	0.857909
H355	H	-0.469168	-0.694870	0.550560
H356	H	-0.135834	-0.361537	0.883893
H357	H	0.197499	-0.028203	1.217227
H358	H	-1.078419	-0.816253	0.312709
H359	H	-0.745086	-0.482920	0.646043
H360	H	-0.411752	-0.149586	0.979376
H361	H	-0.469196	-0.694858	0.451495
H362	H	-0.135863	-0.361525	0.784828
H363	H	0.197470	-0.028192	1.118161
H364	H	-0.237072	-0.206355	0.346222
H365	H	0.096262	0.126979	0.679555
H366	H	0.429595	0.460312	1.012888
H367	H	-0.519210	-0.305268	0.157666
H368	H	-0.185876	0.028066	0.490999
H369	H	0.147457	0.361399	0.824333
H370	H	-0.287206	-0.054205	0.312743
H371	H	0.046128	0.279128	0.646077
H372	H	0.379461	0.612461	0.979410
H373	H	-0.287051	-0.816255	0.451526
H374	H	0.046283	-0.482922	0.784859
H375	H	0.379616	-0.149588	1.118193
H376	H	-0.236733	-0.849731	0.702716
H377	H	0.096600	-0.516397	1.036049
H378	H	0.429934	-0.183064	1.369382
H379	H	-0.469119	0.044941	0.191210
H380	H	-0.135786	0.378274	0.524544
H381	H	0.197547	0.711607	0.857877
H382	H	-0.287212	0.044860	0.312747
H383	H	0.046121	0.378194	0.646081
H384	H	0.379455	0.711527	0.979414
H385	H	-0.519219	-0.206218	0.157674
H386	H	-0.185886	0.127115	0.491007
H387	H	0.147448	0.460449	0.824341
H388	H	-0.469108	-0.054109	0.191193
H389	H	-0.135775	0.279225	0.524527
H390	H	0.197559	0.612558	0.857860
H391	H	-0.469117	-0.457396	0.191169
H392	H	-0.135784	-0.124063	0.524502
H393	H	0.197549	0.209270	0.857836
