data_functionalizedCrystal
_audit_creation_method	'MofGen! by Chris Wilmer'
_symmetry_space_group_name_H-M	'P1'
_symmetry_Int_Tables_number	1
_symmetry_cell_setting	triclinic
loop_
_symmetry_equiv_pos_as_xyz
  x,y,z
_cell_length_a	6.817900
_cell_length_b	11.102288
_cell_length_c	16.255661
_cell_angle_alpha	93.854370
_cell_angle_beta	103.488922
_cell_angle_gamma	108.605689
loop_
_atom_site_label
_atom_site_type_symbol
_atom_site_fract_x
_atom_site_fract_y
_atom_site_fract_z
V1	V	-4.052939	-0.176866	-0.263871
O2	O	-4.013087	0.007443	-0.258848
O3	O	-4.030117	-0.349679	-0.262067
O4	O	-4.004166	-0.174609	-0.378954
O5	O	-4.039217	-0.168840	-0.141151
V6	V	-4.533301	-0.154766	-0.249193
O7	O	-4.321131	-0.225344	-0.296069
O8	O	-4.715306	-0.106287	-0.216995
O9	O	-4.332916	0.018048	-0.250997
O10	O	-4.690550	-0.339074	-0.254216
O11	O	-4.664420	-0.162792	-0.371913
O12	O	-4.358867	-0.157023	-0.134110
C13	C	-3.881352	-0.391793	-0.257904
C14	C	-3.943976	-0.533073	-0.257196
C15	C	-3.848248	-0.168472	-0.407005
C16	C	-3.889824	-0.167770	-0.501086
C17	C	-4.156468	-0.605936	-0.261085
C18	C	-4.215302	-0.738685	-0.260426
C19	C	-3.849130	-0.725694	-0.251984
C20	C	-3.790303	-0.592949	-0.252650
C21	C	-3.799137	-0.159385	-0.723905
C22	C	-3.971599	-0.267595	-0.793381
C23	C	-3.966013	-0.166454	-0.673335
C24	C	-3.867658	-0.057005	-0.771496
C25	C	-4.039592	-0.165177	-0.839718
C26	C	-4.137972	-0.274760	-0.741581
C27	C	-4.033954	-0.064074	-0.719680
C28	C	-4.206557	-0.172315	-0.789137
C29	C	-3.923622	-0.167190	-0.577485
C30	C	-4.082002	-0.164450	-0.935567
C31	C	-4.145024	0.060155	-0.255158
C32	C	-4.061638	0.201433	-0.255872
C33	C	-4.178128	-0.163164	-0.106055
C34	C	-4.115790	-0.163859	-0.011973
H35	H	-4.388329	-0.798006	-0.263595
C36	C	-4.068004	0.050825	-0.676880
C37	C	-3.925463	0.164522	-0.691541
C38	C	-3.956724	0.270404	-0.652114
H39	H	-4.211558	0.047219	-0.700031
H40	H	-4.042306	0.049141	-0.617030
H41	H	-3.951178	0.166205	-0.751380
H42	H	-3.781895	0.168170	-0.668389
H43	H	-3.931026	0.268719	-0.592264
H44	H	-4.100282	0.266785	-0.675268
H45	H	-3.860003	0.347559	-0.662050
H46	H	-3.753780	0.034998	-0.785106
H47	H	-4.281602	-0.557189	-0.264786
C48	C	-3.937266	-0.382278	-0.836339
C49	C	-3.978949	-0.380725	-0.924702
C50	C	-3.947353	-0.486352	-0.964300
H51	H	-3.792891	-0.377704	-0.813986
H52	H	-4.031974	-0.459568	-0.825623
H53	H	-3.884243	-0.303455	-0.935413
H54	H	-4.123317	-0.385317	-0.947079
H55	H	-4.042060	-0.563642	-0.953584
H56	H	-3.802976	-0.481768	-0.941940
H57	H	-3.975649	-0.485319	-1.024259
H58	H	-3.617262	-0.533622	-0.249485
H59	H	-3.724022	-0.774461	-0.248281
C60	C	-3.569224	-0.152484	-0.685822
C61	C	-3.570435	-0.261123	-0.646621
C62	C	-3.358690	-0.254809	-0.611520
H63	H	-3.498555	-0.149844	-0.729938
H64	H	-3.495442	-0.077150	-0.644472
H65	H	-3.644186	-0.336437	-0.687968
H66	H	-3.641061	-0.263785	-0.602494
H67	H	-3.284908	-0.179475	-0.570170
H68	H	-3.288039	-0.252166	-0.655641
H69	H	-3.359483	-0.328511	-0.584911
H70	H	-4.251849	-0.366887	-0.728114
H71	H	-4.379245	-0.177811	-0.817484
