data_functionalizedCrystal
_audit_creation_method	'MofGen! by Chris Wilmer'
_symmetry_space_group_name_H-M	'P1'
_symmetry_Int_Tables_number	1
_symmetry_cell_setting	triclinic
loop_
_symmetry_equiv_pos_as_xyz
  x,y,z
_cell_length_a	11.792241
_cell_length_b	14.421503
_cell_length_c	11.792254
_cell_angle_alpha	89.995854
_cell_angle_beta	84.196007
_cell_angle_gamma	90.003481
loop_
_atom_site_label
_atom_site_type_symbol
_atom_site_fract_x
_atom_site_fract_y
_atom_site_fract_z
O1	O	1.506923	0.077022	0.155551
O2	O	1.176582	0.077044	0.171584
O3	O	1.349761	0.077026	-0.001602
O4	O	1.333744	0.077040	0.328737
O5	O	1.349733	-0.077198	-0.001576
O6	O	1.176554	-0.077180	0.171610
O7	O	1.506894	-0.077201	0.155577
Cu8	Cu	1.341721	-0.091272	0.163596
Cu9	Cu	1.341755	0.091115	0.163565
O10	O	1.333715	-0.077183	0.328763
C11	C	1.134277	-0.000065	0.170590
C12	C	1.008263	-0.000057	0.167576
N13	N	1.341705	-0.219554	0.163617
C14	C	0.777551	-0.000084	0.162033
C15	C	0.905936	-0.000069	0.165112
C16	C	1.261613	-0.469199	0.243662
C17	C	1.364309	-0.531007	0.266322
C18	C	1.341733	-0.408715	0.163590
C19	C	1.239063	-0.531001	0.140956
C20	C	1.341750	-0.591436	0.163566
C21	C	1.444481	-0.469163	0.186302
C22	C	1.319167	-0.469150	0.060890
C23	C	1.421938	-0.530931	0.083508
C24	C	1.341721	-0.303454	0.163606
C25	C	1.341774	-0.696695	0.163549
C26	C	1.549199	-0.000090	0.156571
C27	C	1.675213	-0.000092	0.159586
C28	C	1.348738	-0.000086	-0.043880
C29	C	1.345718	-0.000085	-0.169893
N30	N	1.341780	0.219396	0.163536
C31	C	1.343264	-0.000081	-0.272229
C32	C	1.340196	-0.000072	-0.400616
C33	C	1.334738	-0.000070	0.371041
C34	C	1.337758	-0.000065	0.497054
H35	H	1.383412	-0.558177	0.353163
H36	H	1.300033	-0.441959	-0.025923
O37	O	1.502796	-0.562959	0.002571
C38	C	1.571401	-0.566507	-0.196926
C39	C	1.479769	-0.530153	-0.105385
H40	H	1.552803	-0.540014	-0.284232
H41	H	1.658859	-0.540933	-0.177522
H42	H	1.570336	-0.645552	-0.196794
H43	H	1.480729	-0.451110	-0.105467
H44	H	1.392354	-0.555798	-0.124823
O45	O	1.135381	-0.563293	0.118254
C46	C	0.933757	-0.568589	0.177092
C47	C	1.051104	-0.531945	0.202909
H48	H	0.865591	-0.543275	0.245532
H49	H	0.913766	-0.542055	0.090242
H50	H	0.935058	-0.647630	0.176426
H51	H	1.049890	-0.452906	0.203636
H52	H	1.071050	-0.558550	0.289741
H53	H	1.193928	-0.442094	0.311431
H54	H	1.531334	-0.442114	0.205539
