data_functionalizedCrystal
_audit_creation_method	'MofGen! by Chris Wilmer'
_symmetry_space_group_name_H-M	'P1'
_symmetry_Int_Tables_number	1
_symmetry_cell_setting	triclinic
loop_
_symmetry_equiv_pos_as_xyz
  x,y,z
_cell_length_a	14.519709
_cell_length_b	15.021413
_cell_length_c	14.519709
_cell_angle_alpha	90.003076
_cell_angle_beta	96.319855
_cell_angle_gamma	90.001715
loop_
_atom_site_label
_atom_site_type_symbol
_atom_site_fract_x
_atom_site_fract_y
_atom_site_fract_z
O1	O	1.223873	0.073918	-0.120879
O2	O	1.723873	0.573918	0.379121
O3	O	0.955396	0.073946	-0.135115
O4	O	1.455396	0.573946	0.364885
O5	O	1.096752	0.073923	0.006241
O6	O	1.596752	0.573923	0.506241
O7	O	1.082516	0.073941	-0.262236
O8	O	1.582516	0.573941	0.237764
O9	O	1.096730	-0.074141	0.006221
O10	O	1.596730	0.425859	0.506221
O11	O	0.955373	-0.074119	-0.135136
O12	O	1.455373	0.425881	0.364864
O13	O	1.223850	-0.074146	-0.120899
O14	O	1.723850	0.425854	0.379101
Zn15	Zn	1.089608	-0.097641	-0.128021
Zn16	Zn	1.589608	0.402359	0.371979
Zn17	Zn	1.089638	0.097440	-0.127994
Zn18	Zn	1.589638	0.597440	0.372006
O19	O	1.082493	-0.074124	-0.262256
O20	O	1.582493	0.425876	0.237744
C21	C	0.921025	-0.000083	-0.134462
C22	C	1.421025	0.499917	0.365538
C23	C	0.818643	-0.000073	-0.132474
C24	C	1.318643	0.499927	0.367526
N25	N	1.089595	-0.230778	-0.128038
N26	N	1.589595	0.269222	0.371962
C27	C	0.443748	-0.000114	-0.125154
C28	C	0.943748	0.499886	0.374846
C29	C	0.548056	-0.000102	-0.127187
C30	C	1.048056	0.499898	0.372813
C31	C	0.631192	-0.000093	-0.128814
C32	C	1.131192	0.499907	0.371186
C33	C	0.735507	-0.000083	-0.130847
C34	C	1.235507	0.499917	0.369153
C35	C	1.024221	-0.470451	-0.193371
C36	C	1.524221	0.029549	0.306629
C37	C	1.107584	-0.529793	-0.211408
C38	C	1.607584	-0.029793	0.288592
C39	C	1.089618	-0.412385	-0.128015
C40	C	1.589618	0.087615	0.371985
C41	C	1.006278	-0.529785	-0.109999
C42	C	1.506278	-0.029785	0.390001
C43	C	1.089633	-0.587809	-0.127995
C44	C	1.589633	-0.087809	0.372005
C45	C	1.173023	-0.470421	-0.146094
C46	C	1.673023	0.029579	0.353906
C47	C	1.071663	-0.470408	-0.044649
C48	C	1.571663	0.029592	0.455351
C49	C	1.155085	-0.529723	-0.062650
C50	C	1.655085	-0.029723	0.437350
C51	C	1.089608	-0.311328	-0.128029
C52	C	1.589608	0.188672	0.371971
C53	C	1.089653	-0.688865	-0.127980
C54	C	1.589653	-0.188865	0.372020
C55	C	1.258221	-0.000116	-0.121553
C56	C	1.758221	0.499884	0.378447
C57	C	1.360602	-0.000120	-0.123541
C58	C	1.860602	0.499880	0.376459
C59	C	1.096078	-0.000109	0.040591
C60	C	1.596078	0.499891	0.540591
C61	C	1.094090	-0.000109	0.142972
C62	C	1.594090	0.499891	0.642972
N63	N	1.089659	0.230578	-0.127969
N64	N	1.589659	0.730578	0.372031
C65	C	1.083168	-0.000090	-0.296606
C66	C	1.583168	0.499910	0.203394
C67	C	1.085156	-0.000083	-0.398987
C68	C	1.585156	0.499917	0.101013
C69	C	1.086770	-0.000086	0.517868
C70	C	1.586770	0.499914	1.017868
C71	C	1.088803	-0.000092	0.413560
C72	C	1.588803	0.499908	0.913560
C73	C	1.090430	-0.000098	0.330423
C74	C	1.590430	0.499902	0.830423
C75	C	1.092463	-0.000104	0.226109
C76	C	1.592463	0.499896	0.726109
H77	H	1.122784	-0.555877	-0.281900
H78	H	1.622784	-0.055877	0.218100
H79	H	1.056436	-0.444303	0.025821
H80	H	1.556436	0.055697	0.525821
O81	O	1.221207	-0.560433	0.003313
O82	O	1.721207	-0.060433	0.503313
C83	C	1.267842	-0.487808	0.048897
C84	C	1.767842	0.012192	0.548897
H85	H	1.260391	-0.426749	0.002047
H86	H	1.760391	0.073251	0.502047
H87	H	1.236468	-0.473164	0.115892
H88	H	1.736468	0.026836	0.615892
C89	C	1.380384	-0.585733	0.129020
C90	C	1.880384	-0.085733	0.629020
C91	C	1.371239	-0.510740	0.071474
C92	C	1.871239	-0.010740	0.571474
H93	H	1.444164	-0.599879	0.142951
H94	H	1.944164	-0.099879	0.642951
H95	H	1.348964	-0.634663	0.098312
H96	H	1.848964	-0.134663	0.598312
H97	H	1.354233	-0.573519	0.184842
H98	H	1.854233	-0.073519	0.684842
H99	H	1.397380	-0.522958	0.015649
H100	H	1.897380	-0.022958	0.515649
H101	H	1.402666	-0.461813	0.102173
H102	H	1.902666	0.038187	0.602173
O103	O	0.922116	-0.560786	-0.091932
O104	O	1.422116	-0.060786	0.408068
C105	C	0.853379	-0.530603	-0.161033
C106	C	1.353379	-0.030603	0.338967
H107	H	0.878894	-0.468120	-0.194864
H108	H	1.378894	0.031880	0.305136
H109	H	0.838251	-0.584673	-0.215709
H110	H	1.338251	-0.084673	0.284291
C111	C	0.732927	-0.585740	-0.075407
C112	C	1.232927	-0.085740	0.424593
C113	C	0.764262	-0.508993	-0.116953
C114	C	1.264262	-0.008993	0.383047
H115	H	0.677954	-0.572413	-0.048218
H116	H	1.177954	-0.072413	0.451782
H117	H	0.779236	-0.606078	-0.028853
H118	H	1.279236	-0.106078	0.471147
H119	H	0.720328	-0.630791	-0.120977
H120	H	1.220328	-0.130791	0.379023
H121	H	0.776872	-0.463947	-0.071381
H122	H	1.276872	0.036053	0.428619
H123	H	0.717953	-0.488646	-0.163498
H124	H	1.217953	0.011354	0.336502
H125	H	0.968973	-0.444427	-0.248685
H126	H	1.468973	0.055573	0.251315
H127	H	1.243524	-0.444454	-0.161407
H128	H	1.743524	0.055546	0.338593
