data_functionalizedCrystal
_audit_creation_method	'MofGen! by Chris Wilmer'
_symmetry_space_group_name_H-M	'P1'
_symmetry_Int_Tables_number	1
_symmetry_cell_setting	triclinic
loop_
_symmetry_equiv_pos_as_xyz
  x,y,z
_cell_length_a	14.971482
_cell_length_b	19.288857
_cell_length_c	13.448316
_cell_angle_alpha	89.991240
_cell_angle_beta	89.993798
_cell_angle_gamma	83.372858
loop_
_atom_site_label
_atom_site_type_symbol
_atom_site_fract_x
_atom_site_fract_y
_atom_site_fract_z
O1	O	1.186457	0.090505	-0.082684
O2	O	0.925997	0.101348	-0.082689
O3	O	1.063757	-0.005180	-0.082674
O4	O	1.048697	0.197033	-0.082699
O5	O	1.063740	-0.005186	0.082709
O6	O	0.925980	0.101341	0.082695
O7	O	1.186440	0.090499	0.082700
Cu8	Cu	1.056208	0.095919	0.097798
Cu9	Cu	1.056229	0.095927	-0.097787
O10	O	1.048680	0.197026	0.082685
C11	C	0.892667	0.100860	0.000002
C12	C	0.793377	0.099408	0.000001
C13	C	0.746727	0.098721	0.090152
C14	C	0.653436	0.097346	0.090154
C15	C	0.606796	0.096663	0.000002
C16	C	0.653453	0.097348	-0.090157
C17	C	0.746743	0.098719	-0.090157
C18	C	0.459007	0.094494	-0.090150
C19	C	0.365710	0.093126	-0.090150
C20	C	0.365699	0.093122	0.090161
C21	C	0.458990	0.094492	0.090160
C22	C	0.505640	0.095178	0.000001
C23	C	1.063265	-0.031061	0.000018
C24	C	1.061814	-0.108170	0.000021
C25	C	1.061146	-0.144379	-0.090130
C26	C	1.059770	-0.216829	-0.090137
C27	C	1.059079	-0.253070	0.000011
C28	C	1.059742	-0.216851	0.090174
C29	C	1.061109	-0.144401	0.090179
C30	C	1.109296	-0.373141	0.069072
C31	C	1.107934	-0.445590	0.069063
C32	C	1.054858	-0.476529	0.000000
C33	C	1.003156	-0.435012	-0.069071
C34	C	1.004523	-0.362562	-0.069066
C35	C	1.057596	-0.331629	0.000016
C36	C	1.052697	-0.591297	-0.090165
C37	C	1.051315	-0.663749	-0.090169
C38	C	1.051297	-0.663770	0.090145
C39	C	1.052670	-0.591319	0.090146
C40	C	1.053374	-0.555088	-0.000012
C41	C	1.219770	0.090987	0.000006
C42	C	1.319060	0.092438	0.000002
C43	C	1.049172	0.222908	-0.000010
C44	C	1.050623	0.300016	-0.000019
N45	N	1.056201	0.095914	0.235362
N46	N	1.056244	0.095928	-0.235352
C47	C	1.117219	0.048763	0.287409
C48	C	1.117225	0.048762	0.391513
C49	C	1.056215	0.095916	0.443567
C50	C	0.995190	0.143069	0.391513
C51	C	0.995181	0.143066	0.287411
C52	C	0.995215	0.143074	0.608493
C53	C	0.995225	0.143079	0.712601
C54	C	1.117259	0.048770	0.712594
C55	C	1.117250	0.048767	0.608493
C56	C	1.056225	0.095921	0.556446
H57	H	0.784725	0.099280	-0.163568
H58	H	0.784693	0.099283	0.163565
H59	H	0.945544	0.181476	0.754979
H60	H	1.152516	-0.347956	0.125319
H61	H	0.945519	0.181470	0.566120
H62	H	1.166910	0.010368	0.433889
H63	H	0.496960	0.095052	0.163570
H64	H	0.327712	0.092563	0.163571
H65	H	1.059220	-0.246316	-0.163551
H66	H	1.061717	-0.114883	-0.163543
H67	H	0.962423	-0.328760	-0.125304
H68	H	0.959936	-0.460200	-0.125309
H69	H	1.053221	-0.561838	0.163557
H70	H	1.050728	-0.693275	0.163546
H71	H	0.327738	0.092570	-0.163560
H72	H	0.496987	0.095054	-0.163567
H73	H	1.053265	-0.561796	-0.163577
H74	H	1.050767	-0.693229	-0.163583
H75	H	0.615473	0.096788	-0.163560
H76	H	0.945492	0.181460	0.245036
H77	H	1.150037	-0.479389	0.125302
H78	H	1.059177	-0.246362	0.163574
H79	H	1.166932	0.010374	0.566110
H80	H	1.166946	0.010376	0.754977
H81	H	1.166904	0.010367	0.245033
H82	H	0.945511	0.181461	0.433902
H83	H	1.061649	-0.114920	0.163593
H84	H	0.615459	0.096775	0.163564
