data_functionalizedCrystal
_audit_creation_method	'MofGen! by Chris Wilmer'
_symmetry_space_group_name_H-M	'P1'
_symmetry_Int_Tables_number	1
_symmetry_cell_setting	triclinic
loop_
_symmetry_equiv_pos_as_xyz
  x,y,z
_cell_length_a	15.944499
_cell_length_b	15.944493
_cell_length_c	15.021413
_cell_angle_alpha	90.009890
_cell_angle_beta	89.990095
_cell_angle_gamma	83.476327
loop_
_atom_site_label
_atom_site_type_symbol
_atom_site_fract_x
_atom_site_fract_y
_atom_site_fract_z
O1	O	1.114533	0.108117	-0.074074
O2	O	0.869975	0.121519	-0.074062
O3	O	0.998958	-0.007461	-0.074076
O4	O	0.985551	0.237097	-0.074060
O5	O	0.998937	-0.007443	0.073989
O6	O	0.869955	0.121537	0.074002
O7	O	1.114513	0.108135	0.073991
Zn8	Zn	0.992230	0.114839	0.097505
Zn9	Zn	0.992257	0.114815	-0.097576
O10	O	0.985530	0.237116	0.074004
C11	C	0.838670	0.120979	-0.000029
C12	C	0.745422	0.119334	-0.000025
C13	C	0.453871	0.194269	-0.000034
C14	C	0.514918	0.155307	-0.073041
C15	C	0.409787	0.113358	-0.000046
C16	C	0.514884	0.155303	0.072939
C17	C	0.574695	0.116299	-0.000034
C18	C	0.469606	0.074374	-0.073114
C19	C	0.469565	0.074382	0.072931
C20	C	0.530595	0.035361	-0.000094
C21	C	0.314787	0.111666	-0.000054
C22	C	0.669694	0.117984	-0.000033
C23	C	0.998400	-0.038747	-0.000047
C24	C	0.996757	-0.131995	-0.000059
C25	C	1.145818	0.108675	-0.000045
C26	C	1.239066	0.110320	-0.000054
C27	C	1.072679	-0.367769	-0.000045
C28	C	1.031747	-0.418339	-0.073046
C29	C	0.993713	-0.302716	-0.000048
C30	C	1.031709	-0.418297	0.072933
C31	C	0.990778	-0.467625	-0.000033
C32	C	0.952802	-0.352057	-0.073109
C33	C	0.952775	-0.352012	0.072936
C34	C	0.911785	-0.402548	-0.000082
C35	C	0.995405	-0.207716	-0.000057
C36	C	0.989079	-0.562622	-0.000030
N37	N	0.992218	0.114855	0.230642
C38	C	0.986088	0.268401	-0.000026
C39	C	0.987731	0.361650	-0.000021
N40	N	0.992276	0.114792	-0.230714
C41	C	0.932567	0.174468	0.470332
C42	C	1.008466	0.190761	0.529664
C43	C	0.992240	0.114834	0.412249
C44	C	0.916361	0.098560	0.529659
C45	C	0.992254	0.114816	0.587673
C46	C	1.068177	0.131165	0.470275
C47	C	0.976022	0.038931	0.470264
C48	C	1.051976	0.055192	0.529570
C49	C	0.992230	0.114847	0.311192
C50	C	0.992272	0.114803	0.688728
H51	H	0.535018	0.189524	-0.134755
Br52	Br	0.436031	0.017400	0.175803
Br53	Br	1.087341	-0.466608	-0.175919
Br54	Br	0.809402	0.075629	0.573140
H55	H	0.882155	0.224939	0.444321
H56	H	1.140699	-0.352153	-0.000122
Br57	Br	0.897266	-0.304032	-0.176087
H58	H	1.065065	-0.447226	0.134646
H59	H	0.563787	-0.031847	-0.000137
Br60	Br	0.548324	0.212377	0.175806
Br61	Br	0.953100	-0.068011	0.426741
H62	H	0.449643	0.040176	-0.134905
H63	H	0.843713	-0.418002	-0.000119
Br64	Br	0.398292	0.306183	-0.000138
H65	H	1.102500	0.004751	0.555417
Br66	Br	0.897243	-0.303694	0.175814
Br67	Br	1.031354	0.297733	0.573150
H68	H	1.132365	0.144999	0.444300
