data_functionalizedCrystal
_audit_creation_method	'MofGen! by Chris Wilmer'
_symmetry_space_group_name_H-M	'P1'
_symmetry_Int_Tables_number	1
_symmetry_cell_setting	triclinic
loop_
_symmetry_equiv_pos_as_xyz
  x,y,z
_cell_length_a	23.532407
_cell_length_b	23.532407
_cell_length_c	22.010155
_cell_angle_alpha	89.983144
_cell_angle_beta	90.012768
_cell_angle_gamma	82.848674
loop_
_atom_site_label
_atom_site_type_symbol
_atom_site_fract_x
_atom_site_fract_y
_atom_site_fract_z
O1	O	-0.755249	-0.069141	0.050457
O2	O	-0.421916	0.264192	0.383790
O3	O	-0.088582	0.597526	0.717124
O4	O	-0.589386	-0.079144	0.050476
O5	O	-0.256052	0.254189	0.383809
O6	O	0.077281	0.587522	0.717143
O7	O	-0.677319	0.008789	0.050453
O8	O	-0.343985	0.342122	0.383786
O9	O	-0.010652	0.675456	0.717120
O10	O	-0.667316	-0.157074	0.050480
O11	O	-0.333982	0.176259	0.383814
O12	O	-0.000649	0.509592	0.717147
O13	O	-0.677333	0.008804	-0.050597
O14	O	-0.343999	0.342138	0.282736
O15	O	-0.010666	0.675471	0.616069
O16	O	-0.589399	-0.079129	-0.050574
O17	O	-0.256066	0.254204	0.282759
O18	O	0.077267	0.587538	0.616092
O19	O	-0.755263	-0.069126	-0.050593
O20	O	-0.421929	0.264208	0.282740
O21	O	-0.088596	0.597541	0.616073
Cu22	Cu	-0.672332	-0.074126	-0.059810
Cu23	Cu	-0.338999	0.259207	0.273523
Cu24	Cu	-0.005666	0.592541	0.606856
Cu25	Cu	-0.672316	-0.074144	0.059693
Cu26	Cu	-0.338983	0.259189	0.393027
Cu27	Cu	-0.005649	0.592523	0.726360
O28	O	-0.667329	-0.157059	-0.050570
O29	O	-0.333996	0.176274	0.282763
O30	O	-0.000663	0.509608	0.616097
C31	C	-0.677071	0.030013	-0.000074
C32	C	-0.343738	0.363346	0.333259
C33	C	-0.010404	0.696679	0.666592
C34	C	-0.676305	0.093230	-0.000081
C35	C	-0.342972	0.426563	0.333253
C36	C	-0.009638	0.759896	0.666586
C37	C	-0.776472	-0.069388	-0.000069
C38	C	-0.443138	0.263945	0.333264
C39	C	-0.109805	0.597278	0.666598
C40	C	-0.839689	-0.070154	-0.000072
C41	C	-0.506355	0.263179	0.333262
C42	C	-0.173022	0.596513	0.666595
C43	C	-0.568176	-0.078882	-0.000047
C44	C	-0.234843	0.254451	0.333287
C45	C	0.098490	0.587785	0.666620
C46	C	-0.504959	-0.078116	-0.000040
C47	C	-0.171626	0.255217	0.333293
C48	C	0.161707	0.588551	0.666626
C49	C	-0.723539	0.492333	-0.000063
C50	C	-0.390205	0.825666	0.333271
C51	C	-0.056872	1.158999	0.666604
C52	C	-0.722827	0.551733	-0.000059
C53	C	-0.389494	0.885066	0.333274
C54	C	-0.056160	1.218400	0.666607
O55	O	-0.766613	0.588478	-0.000043
O56	O	-0.433280	0.921811	0.333291
O57	O	-0.099946	1.255144	0.666624
N58	N	-0.670551	0.574359	-0.000054
N59	N	-0.337217	0.907693	0.333279
N60	N	-0.003884	1.241026	0.666612
C61	C	-0.618983	0.537582	-0.000047
C62	C	-0.285649	0.870915	0.333287
C63	C	0.047684	1.204248	0.666620
O64	O	-0.574452	0.562281	-0.000042
O65	O	-0.241119	0.895615	0.333292
O66	O	0.092215	1.228948	0.666625
C67	C	-0.619695	0.478183	-0.000045
C68	C	-0.286361	0.811516	0.333288
C69	C	0.046972	1.144849	0.666621
C70	C	-0.671974	0.455560	-0.000057
C71	C	-0.338641	0.788893	0.333277
C72	C	-0.005308	1.122227	0.666610
C73	C	-0.775814	0.469710	-0.000073
C74	C	-0.442481	0.803043	0.333260
C75	C	-0.109147	1.136376	0.666594
C76	C	-0.776525	0.410313	-0.000077
C77	C	-0.443192	0.743647	0.333256
C78	C	-0.109859	1.076980	0.666589
C79	C	-0.724961	0.373540	-0.000071
C80	C	-0.391628	0.706874	0.333262
C81	C	-0.058294	1.040207	0.666595
C82	C	-0.672686	0.396164	-0.000061
C83	C	-0.339352	0.729497	0.333272
C84	C	-0.006019	1.062830	0.666606
C85	C	-0.568127	0.441406	-0.000033
C86	C	-0.234794	0.774739	0.333300
C87	C	0.098540	1.108073	0.666633
C88	C	-0.568844	0.382004	-0.000032
C89	C	-0.235510	0.715337	0.333302
C90	C	0.097823	1.048670	0.666635
C91	C	-0.621123	0.359381	-0.000043
C92	C	-0.287790	0.692714	0.333291
C93	C	0.045543	1.026048	0.666624
C94	C	-0.621832	0.299995	-0.000059
C95	C	-0.288499	0.633328	0.333274
C96	C	0.044834	0.966661	0.666608
N97	N	-0.674109	0.277369	-0.000064
N98	N	-0.340775	0.610702	0.333269
N99	N	-0.007442	0.944035	0.666603
C100	C	-0.725673	0.314141	-0.000070
C101	C	-0.392340	0.647475	0.333263
C102	C	-0.059006	0.980808	0.666597
C103	C	-0.617491	0.662324	-0.000048
C104	C	-0.284158	0.995657	0.333285
C105	C	0.049175	1.328991	0.666619
C106	C	-0.616779	0.721722	-0.000053
C107	C	-0.283445	1.055055	0.333280
C108	C	0.049888	1.388389	0.666613
C109	C	-0.720623	0.735869	-0.000065
C110	C	-0.387290	1.069203	0.333268
C111	C	-0.053957	1.402536	0.666602
C112	C	-0.721335	0.676470	-0.000064
C113	C	-0.388002	1.009804	0.333269
C114	C	-0.054669	1.343137	0.666603
C115	C	-0.669767	0.639698	-0.000053
C116	C	-0.336434	0.973031	0.333281
C117	C	-0.003101	1.306365	0.666614
C118	C	-0.727163	0.189405	-0.000080
C119	C	-0.393829	0.522738	0.333254
C120	C	-0.060496	0.856071	0.666587
C121	C	-0.727869	0.130003	-0.000087
C122	C	-0.394536	0.463336	0.333247
C123	C	-0.061203	0.796669	0.666580
C124	C	-0.624025	0.115860	-0.000072
C125	C	-0.290692	0.449194	0.333262
C126	C	0.042642	0.782527	0.666595
C127	C	-0.623318	0.175257	-0.000068
C128	C	-0.289985	0.508591	0.333265
C129	C	0.043349	0.841924	0.666599
C130	C	-0.674891	0.212029	-0.000070
C131	C	-0.341558	0.545362	0.333263
C132	C	-0.008225	0.878695	0.666597
O133	O	-0.578070	0.263215	-0.000073
O134	O	-0.244736	0.596549	0.333260
O135	O	0.088597	0.929882	0.666593
O136	O	-0.770196	0.289434	-0.000067
O137	O	-0.436863	0.622767	0.333266
O138	O	-0.103529	0.956100	0.666600
C139	C	-0.105856	-0.125350	-0.000060
C140	C	0.227477	0.207984	0.333273
C141	C	0.560810	0.541317	0.666607
C142	C	-0.046456	-0.124638	-0.000064
C143	C	0.286877	0.208695	0.333270
C144	C	0.620211	0.542029	0.666603
O145	O	-0.009711	-0.168424	-0.000079
O146	O	0.323622	0.164909	0.333255
O147	O	0.656955	0.498243	0.666588
N148	N	-0.023830	-0.072362	-0.000071
N149	N	0.309504	0.260972	0.333262
N150	N	0.642837	0.594305	0.666595
C151	C	-0.060607	-0.020794	-0.000081
C152	C	0.272726	0.312540	0.333252
C153	C	0.606059	0.645873	0.666585
O154	O	-0.035908	0.023737	-0.000089
O155	O	0.297426	0.357070	0.333244
O156	O	0.630759	0.690404	0.666578
C157	C	-0.120006	-0.021506	-0.000082
C158	C	0.213327	0.311828	0.333251
C159	C	0.546660	0.645161	0.666585
C160	C	-0.142629	-0.073785	-0.000068
C161	C	0.190704	0.259548	0.333265
C162	C	0.524038	0.592881	0.666599
C163	C	-0.128479	-0.177625	-0.000047
C164	C	0.204854	0.155708	0.333287
C165	C	0.538187	0.489042	0.666620
C166	C	-0.187876	-0.178336	-0.000042
C167	C	0.145458	0.154997	0.333292
C168	C	0.478791	0.488330	0.666625
C169	C	-0.224649	-0.126772	-0.000050
C170	C	0.108685	0.206561	0.333283
C171	C	0.442018	0.539895	0.666617
C172	C	-0.202025	-0.074496	-0.000063
C173	C	0.131308	0.258837	0.333270
C174	C	0.464641	0.592170	0.666604
C175	C	-0.156783	0.030062	-0.000096
C176	C	0.176550	0.363395	0.333237
C177	C	0.509884	0.696729	0.666570
C178	C	-0.216185	0.029345	-0.000097
C179	C	0.117148	0.362679	0.333236
C180	C	0.450481	0.696012	0.666569
C181	C	-0.238808	-0.022934	-0.000083
C182	C	0.094525	0.310399	0.333250
C183	C	0.427859	0.643732	0.666583
C184	C	-0.298194	-0.023643	-0.000066
C185	C	0.035139	0.309690	0.333267
C186	C	0.368472	0.643023	0.666600
N187	N	-0.320820	-0.075920	-0.000059
N188	N	0.012513	0.257414	0.333275
N189	N	0.345846	0.590747	0.666608
C190	C	-0.284048	-0.127484	-0.000050
C191	C	0.049286	0.205849	0.333283
C192	C	0.382619	0.539183	0.666616
C193	C	0.064135	-0.019302	-0.000081
C194	C	0.397468	0.314031	0.333252
C195	C	0.730802	0.647365	0.666585
C196	C	0.123533	-0.018589	-0.000077
C197	C	0.456866	0.314744	0.333257
C198	C	0.790200	0.648077	0.666590
C199	C	0.137680	-0.122434	-0.000060
C200	C	0.471014	0.210899	0.333273
C201	C	0.804347	0.544232	0.666607
C202	C	0.078281	-0.123146	-0.000060
C203	C	0.411615	0.210187	0.333273
C204	C	0.744948	0.543520	0.666606
C205	C	0.041509	-0.071578	-0.000074
C206	C	0.374842	0.261755	0.333260
C207	C	0.708176	0.595088	0.666593
C208	C	-0.408784	-0.128974	-0.000039
C209	C	-0.075451	0.204360	0.333294
C210	C	0.257882	0.537693	0.666627
C211	C	-0.468186	-0.129680	-0.000032
C212	C	-0.134853	0.203653	0.333301
C213	C	0.198480	0.536986	0.666635
C214	C	-0.482329	-0.025836	-0.000052
C215	C	-0.148995	0.307497	0.333282
C216	C	0.184338	0.640831	0.666615
C217	C	-0.422932	-0.025129	-0.000056
C218	C	-0.089598	0.308204	0.333277
C219	C	0.243735	0.641538	0.666611
C220	C	-0.386160	-0.076702	-0.000052
C221	C	-0.052827	0.256631	0.333281
C222	C	0.280506	0.589964	0.666615
O223	O	-0.334974	0.020119	-0.000054
O224	O	-0.001640	0.353453	0.333279
O225	O	0.331693	0.686786	0.666613
O226	O	-0.308755	-0.172007	-0.000051
O227	O	0.024578	0.161326	0.333282
O228	O	0.357911	0.494660	0.666616
C229	C	-0.667577	0.821717	-0.000048
C230	C	-0.334244	1.155051	0.333286
C231	C	-0.000911	1.488384	0.666619
C232	C	-0.668343	0.758500	-0.000056
C233	C	-0.335010	1.091834	0.333277
C234	C	-0.001676	1.425167	0.666610
N235	N	-0.672305	-0.074153	0.143746
N236	N	-0.338972	0.259181	0.477079
N237	N	-0.005638	0.592514	0.810412
N238	N	-0.672348	-0.074113	-0.143863
N239	N	-0.339014	0.259221	0.189470
N240	N	-0.005681	0.592554	0.522804
C241	C	-0.711350	-0.035273	0.563515
C242	C	-0.378017	0.298060	0.896848
C243	C	-0.044683	0.631393	1.230182
C244	C	-0.711354	-0.035271	0.627123
C245	C	-0.378021	0.298062	0.960456
C246	C	-0.044687	0.631396	1.293789
O247	O	-0.744543	-0.002237	0.660005
O248	O	-0.411210	0.331097	0.993339
O249	O	-0.077877	0.664430	1.326672
N250	N	-0.672344	-0.074126	0.658953
N251	N	-0.339011	0.259207	0.992286
N252	N	-0.005677	0.592540	1.325620
C253	C	-0.633331	-0.112991	0.627172
C254	C	-0.299998	0.220343	0.960506
C255	C	0.033335	0.553676	1.293839
O256	O	-0.600151	-0.146040	0.660087
O257	O	-0.266818	0.187293	0.993421
O258	O	0.066515	0.520626	1.326754
C259	C	-0.633331	-0.112995	0.563566
C260	C	-0.299997	0.220338	0.896899
C261	C	0.033336	0.553671	1.230233
C262	C	-0.672339	-0.074134	0.531739
C263	C	-0.339006	0.259200	0.865072
C264	C	-0.005673	0.592533	1.198406
C265	C	-0.750356	0.003585	0.531688
C266	C	-0.417022	0.336918	0.865021
C267	C	-0.083689	0.670251	1.198354
C268	C	-0.750351	0.003583	0.468085
C269	C	-0.417018	0.336916	0.801418
C270	C	-0.083684	0.670249	1.134751
C271	C	-0.711340	-0.035277	0.436308
C272	C	-0.378007	0.298056	0.769642
C273	C	-0.044673	0.631389	1.102975
C274	C	-0.672334	-0.074136	0.468136
C275	C	-0.339001	0.259198	0.801469
C276	C	-0.005668	0.592531	1.134802
C277	C	-0.594321	-0.151862	0.531787
C278	C	-0.260988	0.181471	0.865120
C279	C	0.072346	0.514805	1.198453
C280	C	-0.594324	-0.151864	0.468176
C281	C	-0.260991	0.181470	0.801509
C282	C	0.072343	0.514803	1.134843
C283	C	-0.633332	-0.113002	0.436349
C284	C	-0.299999	0.220332	0.769682
C285	C	0.033334	0.553665	1.103015
C286	C	-0.633319	-0.112998	0.372756
C287	C	-0.299985	0.220336	0.706090
C288	C	0.033348	0.553669	1.039423
N289	N	-0.672328	-0.074142	0.340926
N290	N	-0.338995	0.259191	0.674259
N291	N	-0.005662	0.592524	1.007593
C292	C	-0.711339	-0.035282	0.372702
C293	C	-0.378006	0.298051	0.706035
C294	C	-0.044673	0.631385	1.039369
C295	C	-0.633337	-0.112978	0.760750
C296	C	-0.300004	0.220355	1.094084
C297	C	0.033330	0.553688	1.427417
C298	C	-0.633335	-0.112971	0.824355
C299	C	-0.300001	0.220362	1.157689
C300	C	0.033332	0.553695	1.491022
C301	C	-0.711358	-0.035252	0.824301
C302	C	-0.378025	0.298081	1.157635
C303	C	-0.044691	0.631415	1.490968
C304	C	-0.711357	-0.035257	0.760695
C305	C	-0.378024	0.298076	1.094028
C306	C	-0.044691	0.631410	1.427361
C307	C	-0.672347	-0.074123	0.728920
C308	C	-0.339014	0.259210	1.062253
C309	C	-0.005680	0.592544	1.395586
C310	C	-0.711326	-0.035289	0.239131
C311	C	-0.377992	0.298044	0.572464
C312	C	-0.044659	0.631378	0.905797
C313	C	-0.711316	-0.035293	0.175522
C314	C	-0.377982	0.298041	0.508855
C315	C	-0.044649	0.631374	0.842189
C316	C	-0.633295	-0.113013	0.175582
C317	C	-0.299961	0.220320	0.508915
C318	C	0.033372	0.553653	0.842248
C319	C	-0.633302	-0.113008	0.239185
C320	C	-0.299969	0.220325	0.572518
C321	C	0.033364	0.553659	0.905852
C322	C	-0.672323	-0.074143	0.270958
C323	C	-0.338989	0.259190	0.604291
C324	C	-0.005656	0.592523	0.937625
O325	O	-0.600148	-0.146017	0.339833
O326	O	-0.266814	0.187317	0.673167
O327	O	0.066519	0.520650	1.006500
O328	O	-0.744519	-0.002243	0.339779
O329	O	-0.411185	0.331090	0.673113
O330	O	-0.077852	0.664424	1.006446
H331	H	-0.770444	0.111587	-0.000097
H332	H	-0.437110	0.444920	0.333236
H333	H	-0.103777	0.778254	0.666570
Br334	Br	-0.554048	0.065943	-0.000064
Br335	Br	-0.220715	0.399277	0.333270
Br336	Br	0.112618	0.732610	0.666603
H337	H	0.167632	-0.164421	-0.000056
H338	H	0.500965	0.168913	0.333277
H339	H	0.834299	0.502246	0.666610
Br340	Br	-0.845804	0.519606	-0.000081
Br341	Br	-0.512471	0.852939	0.333253
Br342	Br	-0.179137	1.186272	0.666586
H343	H	-0.404512	0.017441	-0.000058
H344	H	-0.071178	0.350775	0.333275
H345	H	0.262155	0.684108	0.666608
Br346	Br	-0.792289	0.645775	-0.000080
Br347	Br	-0.458955	0.979108	0.333253
Br348	Br	-0.125622	1.312441	0.666587
H349	H	-0.246123	0.071339	-0.000108
H350	H	0.087210	0.404673	0.333225
H351	H	0.420543	0.738006	0.666558
Br352	Br	-0.218568	-0.249291	-0.000026
Br353	Br	0.114765	0.084042	0.333308
Br354	Br	0.448099	0.417376	0.666641
H355	H	-0.762610	0.765821	-0.000068
H356	H	-0.429276	1.099154	0.333266
H357	H	-0.095943	1.432488	0.666599
Br358	Br	-0.764257	0.017454	0.132331
Br359	Br	-0.430924	0.350787	0.465664
Br360	Br	-0.097590	0.684120	0.798998
H361	H	-0.574207	0.740136	-0.000055
H362	H	-0.240874	1.073469	0.333278
H363	H	0.092459	1.406802	0.666612
Br364	Br	-0.078583	-0.247615	-0.000036
Br365	Br	0.254750	0.085718	0.333298
Br366	Br	0.588083	0.419052	0.666631
H367	H	-0.575496	0.632387	-0.000044
H368	H	-0.242162	0.965720	0.333289
H369	H	0.091171	1.299053	0.666623
H370	H	-0.782116	0.035226	0.442175
H371	H	-0.448783	0.368559	0.775508
H372	H	-0.115450	0.701892	1.108841
H373	H	-0.743122	-0.003613	0.734785
H374	H	-0.409788	0.329721	1.068118
H375	H	-0.076455	0.663054	1.401452
H376	H	-0.769159	0.219337	-0.000079
H377	H	-0.435826	0.552671	0.333254
H378	H	-0.102492	0.886004	0.666588
H379	H	-0.601531	-0.144651	0.149700
H380	H	-0.268197	0.188682	0.483033
H381	H	0.065136	0.522015	0.816366
H382	H	-0.378851	-0.170970	-0.000038
H383	H	-0.045518	0.162363	0.333295
H384	H	0.287815	0.495697	0.666629
H385	H	0.034197	0.022693	-0.000087
H386	H	0.367531	0.356027	0.333247
H387	H	0.700864	0.689360	0.666580
H388	H	-0.601532	-0.144647	0.265099
H389	H	-0.268199	0.188686	0.598432
H390	H	0.065134	0.522020	0.931766
Br391	Br	-0.580386	-0.165726	0.717633
Br392	Br	-0.247052	0.167607	1.050966
Br393	Br	0.086281	0.500940	1.384300
Br394	Br	0.047586	-0.194099	-0.000042
Br395	Br	0.380919	0.139234	0.333291
Br396	Br	0.714252	0.472567	0.666625
H397	H	-0.743100	-0.003642	0.264993
H398	H	-0.409767	0.329691	0.598326
H399	H	-0.076433	0.663024	0.931660
H400	H	-0.819097	0.391900	-0.000084
H401	H	-0.485763	0.725233	0.333250
H402	H	-0.152430	1.058567	0.666583
Br403	Br	-0.497171	0.472092	-0.000016
Br404	Br	-0.163838	0.805426	0.333317
Br405	Br	0.169495	1.138759	0.666651
H406	H	-0.512280	0.016146	-0.000056
H407	H	-0.178946	0.349480	0.333277
H408	H	0.154387	0.682813	0.666611
Br409	Br	-0.498854	0.332101	-0.000014
Br410	Br	-0.165521	0.665434	0.333319
Br411	Br	0.167812	0.998768	0.666653
Br412	Br	-0.552367	0.205961	-0.000067
Br413	Br	-0.219033	0.539294	0.333266
Br414	Br	0.114300	0.872627	0.666600
H415	H	-0.486602	-0.172255	-0.000020
H416	H	-0.153269	0.161079	0.333313
H417	H	0.180065	0.494412	0.666646
H418	H	0.141947	0.023982	-0.000078
H419	H	0.475280	0.357315	0.333255
H420	H	0.808613	0.690649	0.666588
H421	H	-0.138375	0.072634	-0.000108
H422	H	0.194959	0.405967	0.333225
H423	H	0.528292	0.739300	0.666559
Br424	Br	-0.803307	0.056329	0.574802
Br425	Br	-0.469973	0.389663	0.908135
Br426	Br	-0.136640	0.722996	1.241468
H427	H	-0.743124	-0.003611	0.850185
H428	H	-0.409790	0.329723	1.183518
H429	H	-0.076457	0.663056	1.516851
Br430	Br	-0.580383	-0.165705	0.867542
Br431	Br	-0.247050	0.167629	1.200876
Br432	Br	0.086283	0.500962	1.534209
Br433	Br	-0.541379	-0.204605	0.574968
Br434	Br	-0.208045	0.128728	0.908301
Br435	Br	0.125288	0.462061	1.241634
H436	H	-0.562557	-0.183515	0.442308
H437	H	-0.229224	0.149819	0.775641
H438	H	0.104109	0.483152	1.108974
