data_functionalizedCrystal
_audit_creation_method	'MofGen! by Chris Wilmer'
_symmetry_space_group_name_H-M	'P1'
_symmetry_Int_Tables_number	1
_symmetry_cell_setting	triclinic
loop_
_symmetry_equiv_pos_as_xyz
  x,y,z
_cell_length_a	16.625548
_cell_length_b	18.101397
_cell_length_c	16.625539
_cell_angle_alpha	90.031854
_cell_angle_beta	90.020568
_cell_angle_gamma	90.021534
loop_
_atom_site_label
_atom_site_type_symbol
_atom_site_fract_x
_atom_site_fract_y
_atom_site_fract_z
Zn1	Zn	1.232692	-0.294807	0.455889
Zn2	Zn	1.732692	0.205193	0.955889
Zn3	Zn	1.232600	-0.418656	0.321048
Zn4	Zn	1.732600	0.081344	0.821048
Zn5	Zn	1.097853	-0.294835	0.321070
Zn6	Zn	1.597853	0.205165	0.821070
Zn7	Zn	1.097829	-0.418614	0.455838
Zn8	Zn	1.597829	0.081386	0.955838
O9	O	1.165243	-0.356728	0.388462
O10	O	1.665243	0.143272	0.888462
O11	O	1.345512	-0.311242	0.438015
O12	O	1.845512	0.188758	0.938015
O13	O	1.214697	-0.402261	0.208219
O14	O	1.714697	0.097739	0.708219
O15	O	1.115789	-0.191199	0.338985
O16	O	1.615789	0.308801	0.838985
O17	O	1.345444	-0.402233	0.338948
O18	O	1.845444	0.097767	0.838948
O19	O	1.214854	-0.191178	0.438036
O20	O	1.714854	0.308822	0.938036
O21	O	1.115700	-0.311290	0.208235
O22	O	1.615700	0.188710	0.708235
O23	O	0.985018	-0.311249	0.338935
O24	O	1.485018	0.188751	0.838935
O25	O	1.115747	-0.402161	0.568677
O26	O	1.615747	0.097839	1.068677
O27	O	0.985000	-0.402188	0.437949
O28	O	1.485000	0.097812	0.937949
O29	O	1.214830	-0.311201	0.568715
O30	O	1.714830	0.188799	1.068715
O31	O	1.214673	-0.522283	0.338898
O32	O	1.714673	-0.022283	0.838898
O33	O	1.115657	-0.522252	0.437928
O34	O	1.615657	-0.022252	0.937928
C35	C	0.955752	-0.356718	0.388439
C36	C	1.455752	0.143282	0.888439
C37	C	0.866131	-0.356731	0.388448
C38	C	1.366131	0.143269	0.888448
C39	C	1.165174	-0.549139	0.388422
C40	C	1.665174	-0.049139	0.888422
C41	C	1.165219	-0.631453	0.388433
C42	C	1.665219	-0.131453	0.888433
C43	C	0.537956	-0.356736	0.388483
C44	C	1.037956	0.143264	0.888483
C45	C	0.629264	-0.356732	0.388471
C46	C	1.129264	0.143268	0.888471
C47	C	0.702041	-0.356734	0.388465
C48	C	1.202041	0.143266	0.888465
C49	C	0.793355	-0.356729	0.388454
C50	C	1.293355	0.143271	0.888454
C51	C	1.165322	-0.930544	0.388506
C52	C	1.665322	-0.430544	0.888506
C53	C	1.227446	-0.899207	0.326033
C54	C	1.727446	-0.399207	0.826033
C55	C	1.227661	-0.813589	0.326194
C56	C	1.727661	-0.313589	0.826194
C57	C	1.165271	-0.782161	0.388469
C58	C	1.665271	-0.282161	0.888469
C59	C	1.188307	-0.813166	0.473459
C60	C	1.688307	-0.313166	0.973459
C61	C	1.188788	-0.898811	0.473119
C62	C	1.688788	-0.398811	0.973119
C63	C	1.079995	-0.899055	0.366725
C64	C	1.579995	-0.399055	0.866725
C65	C	1.080417	-0.813405	0.364828
C66	C	1.580417	-0.313405	0.864828
C67	C	1.165240	-0.698302	0.388453
C68	C	1.665240	-0.198302	0.888453
C69	C	1.165354	-1.014403	0.388528
C70	C	1.665354	-0.514403	0.888528
C71	C	1.375552	-0.356739	0.388485
C72	C	1.875552	0.143261	0.888485
C73	C	1.465173	-0.356744	0.388494
C74	C	1.965173	0.143256	0.888494
C75	C	1.165296	-0.356673	0.598771
C76	C	1.665296	0.143327	1.098771
C77	C	1.165318	-0.356649	0.688392
C78	C	1.665318	0.143351	1.188392
C79	C	1.165335	-0.163566	0.388518
C80	C	1.665335	0.336434	0.888518
C81	C	1.165373	-0.081252	0.388543
C82	C	1.665373	0.418748	0.888543
C83	C	1.165238	-0.356730	0.178971
C84	C	1.665238	0.143270	0.678971
C85	C	1.165371	-0.356544	0.089350
C86	C	1.665371	0.143456	0.589350
C87	C	1.165355	-0.356566	1.016568
C88	C	1.665355	0.143434	1.516568
C89	C	1.165343	-0.356592	0.925259
C90	C	1.665343	0.143408	1.425259
C91	C	1.165337	-0.356609	0.852483
C92	C	1.665337	0.143391	1.352483
C93	C	1.165324	-0.356633	0.761168
C94	C	1.665324	0.143367	1.261168
H95	H	1.213208	-0.919852	0.262825
H96	H	1.713208	-0.419852	0.762825
H97	H	1.251157	-0.918729	0.491569
H98	H	1.751157	-0.418729	0.991569
O99	O	1.054895	-0.924970	0.294137
O100	O	1.554895	-0.424970	0.794137
C101	C	0.954161	-0.993832	0.221643
C102	C	1.454161	-0.493832	0.721643
C103	C	0.982492	-0.964542	0.303904
C104	C	1.482492	-0.464542	0.803904
H105	H	0.895611	-1.025818	0.229509
H106	H	1.395611	-0.525818	0.729509
H107	H	1.002055	-1.031915	0.195418
H108	H	1.502055	-0.531915	0.695418
H109	H	0.943817	-0.945393	0.179088
H110	H	1.443817	-0.445393	0.679088
H111	H	0.992829	-1.012934	0.346520
H112	H	1.492829	-0.512934	0.846520
H113	H	0.934583	-0.926437	0.330063
H114	H	1.434583	-0.426437	0.830063
O115	O	1.137155	-0.923419	0.530608
O116	O	1.637155	-0.423419	1.030608
C117	C	1.043156	-0.890545	0.634938
C118	C	1.543156	-0.390545	1.134938
C119	C	1.101608	-0.862581	0.569868
C120	C	1.601608	-0.362581	1.069868
H121	H	1.014388	-0.841371	0.666687
H122	H	1.514388	-0.341371	1.166687
H123	H	1.077478	-0.925350	0.680614
H124	H	1.577478	-0.425350	1.180614
H125	H	0.994284	-0.925625	0.605641
H126	H	1.494284	-0.425625	1.105641
H127	H	1.150493	-0.827471	0.599095
H128	H	1.650493	-0.327471	1.099095
H129	H	1.067231	-0.827815	0.524200
H130	H	1.567231	-0.327815	1.024200
H131	H	1.213249	-0.792629	0.263176
H132	H	1.713249	-0.292629	0.763176
H133	H	1.144442	-0.792807	0.521259
H134	H	1.644442	-0.292807	1.021259
H135	H	1.290866	-0.793044	0.340606
H136	H	1.790866	-0.293044	0.840606
H137	H	1.031640	-0.792020	0.406999
H138	H	1.531640	-0.292020	0.906999
H139	H	1.249978	-0.791657	0.492221
H140	H	1.749978	-0.291657	0.992221
H141	H	1.063047	-0.793148	0.302282
H142	H	1.563047	-0.293148	0.802282
H143	H	1.290305	-0.920674	0.340278
H144	H	1.790305	-0.420674	0.840278
H145	H	1.033708	-0.919320	0.412227
H146	H	1.533708	-0.419320	0.912227
