data_functionalizedCrystal
_audit_creation_method	'MofGen! by Chris Wilmer'
_symmetry_space_group_name_H-M	'P1'
_symmetry_Int_Tables_number	1
_symmetry_cell_setting	triclinic
loop_
_symmetry_equiv_pos_as_xyz
  x,y,z
_cell_length_a	17.038272
_cell_length_b	10.723024
_cell_length_c	9.798715
_cell_angle_alpha	89.997773
_cell_angle_beta	89.998092
_cell_angle_gamma	92.210287
loop_
_atom_site_label
_atom_site_type_symbol
_atom_site_fract_x
_atom_site_fract_y
_atom_site_fract_z
O1	O	1.038865	-0.271122	0.113315
O2	O	0.811210	-0.266816	0.113355
O3	O	0.930289	-0.087879	0.113329
O4	O	0.919786	-0.450059	0.113341
O5	O	0.930280	-0.087876	-0.113653
O6	O	0.811201	-0.266814	-0.113627
O7	O	1.038856	-0.271119	-0.113668
Zn8	Zn	0.925027	-0.268966	-0.149686
Zn9	Zn	0.925039	-0.268969	0.149373
O10	O	0.919777	-0.450057	-0.113641
C11	C	0.782056	-0.262900	-0.000131
C12	C	0.695198	-0.251218	-0.000116
C13	C	0.929520	-0.041307	-0.000161
C14	C	0.927233	0.097459	-0.000155
N15	N	0.925025	-0.268964	-0.353785
C16	C	0.645677	-0.358473	-0.000113
C17	C	0.564066	-0.347489	-0.000132
C18	C	0.531977	-0.229248	-0.000144
C19	C	0.581505	-0.121985	-0.000151
C20	C	0.663115	-0.132970	-0.000142
C21	C	0.286005	-0.190440	-0.000182
C22	C	0.204389	-0.179463	-0.000187
C23	C	0.186955	-0.404968	-0.000172
C24	C	0.268567	-0.415943	-0.000154
C25	C	0.318088	-0.308679	-0.000168
C26	C	0.448558	-0.218018	-0.000160
C27	C	0.401506	-0.319911	-0.000162
C28	C	1.068010	-0.275036	-0.000179
C29	C	1.154868	-0.286718	-0.000185
C30	C	0.920546	-0.496629	-0.000149
C31	C	0.922833	-0.635394	-0.000145
C32	C	0.993863	0.166278	-0.000165
C33	C	0.991501	0.309700	-0.000160
C34	C	0.970640	-0.345545	-0.421569
C35	C	0.970653	-0.345545	-0.578732
N36	N	0.925047	-0.268962	0.353473
H37	H	0.671797	-0.454757	-0.000103
N38	N	1.019637	-0.427793	-0.348443
N39	N	1.062531	-0.499779	-0.412090
H40	H	1.097142	-0.557863	-0.360448
H41	H	0.294687	-0.512227	-0.000128
N42	N	1.067616	0.106983	-0.000164
N43	N	1.069430	-0.009439	-0.000160
H44	H	1.121520	-0.051316	-0.000157
N45	N	1.019633	-0.427805	-0.651868
N46	N	1.019569	-0.427696	-0.779433
H47	H	1.054161	-0.485797	-0.831090
H48	H	0.885983	-0.203397	-0.412105
N49	N	0.336584	-0.080879	-0.000157
N50	N	0.384063	-0.061851	0.095527
H51	H	0.419789	0.015530	0.095548
H52	H	0.523748	-0.434828	-0.000129
H53	H	0.178266	-0.083172	-0.000196
H54	H	0.146627	-0.492295	-0.000163
N55	N	0.548718	-0.001213	-0.000177
N56	N	0.475852	0.008581	-0.000184
H57	H	0.452695	0.093879	-0.000200
H58	H	0.865789	0.305457	-0.000146
N59	N	0.853467	0.156713	-0.000159
N60	N	0.790823	0.092085	-0.000159
H61	H	0.738722	0.133930	-0.000165
H62	H	0.422422	-0.121746	-0.000208
H63	H	0.885989	-0.203401	-0.588244
H64	H	0.703435	-0.045631	-0.000143
N65	N	1.063062	0.383901	-0.000143
N66	N	1.110979	0.374333	0.095532
H67	H	1.161521	0.426740	0.095546
H68	H	0.427636	-0.416182	-0.000160
