data_functionalizedCrystal
_audit_creation_method	'MofGen! by Chris Wilmer'
_symmetry_space_group_name_H-M	'P1'
_symmetry_Int_Tables_number	1
_symmetry_cell_setting	triclinic
loop_
_symmetry_equiv_pos_as_xyz
  x,y,z
_cell_length_a	12.759401
_cell_length_b	18.101396
_cell_length_c	12.759393
_cell_angle_alpha	90.031739
_cell_angle_beta	89.979062
_cell_angle_gamma	89.961452
loop_
_atom_site_label
_atom_site_type_symbol
_atom_site_fract_x
_atom_site_fract_y
_atom_site_fract_z
Zn1	Zn	1.606103	0.294764	-0.594011
Zn2	Zn	1.605926	0.418623	-0.418327
Zn3	Zn	1.430402	0.294803	-0.418346
Zn4	Zn	1.430326	0.418571	-0.593964
O5	O	1.518189	0.356690	-0.506162
O6	O	1.753101	0.311199	-0.570718
O7	O	1.582600	0.402236	-0.271309
O8	O	1.453816	0.191165	-0.441676
O9	O	1.752971	0.402198	-0.441644
O10	O	1.582903	0.191136	-0.570736
O11	O	1.453644	0.311266	-0.271323
O12	O	1.283371	0.311216	-0.441631
O13	O	1.453685	0.402110	-0.740992
O14	O	1.283315	0.402148	-0.570657
O15	O	1.582828	0.311149	-0.741026
O16	O	1.582526	0.522249	-0.441599
O17	O	1.453513	0.522211	-0.570638
C18	C	1.245222	0.356681	-0.506141
C19	C	1.128445	0.356695	-0.506157
C20	C	1.518021	0.549101	-0.506134
C21	C	1.518044	0.631415	-0.506158
C22	C	1.073582	0.404115	-0.573235
C23	C	0.963858	0.404118	-0.573256
C24	C	0.963871	0.309278	-0.439112
C25	C	1.073593	0.309272	-0.439097
C26	C	0.813947	0.430691	-0.697116
C27	C	0.759079	0.478123	-0.764185
C28	C	0.794637	0.550396	-0.780130
C29	C	0.885061	0.575251	-0.728992
C30	C	0.939922	0.527823	-0.661915
C31	C	0.904366	0.455540	-0.645990
C32	C	1.223505	0.282707	-0.315236
C33	C	1.278369	0.235282	-0.248153
C34	C	1.242814	0.163008	-0.232197
C35	C	1.152387	0.138156	-0.283317
C36	C	1.097523	0.185581	-0.350400
C37	C	1.133086	0.257854	-0.366358
C38	C	1.518231	0.930506	-0.506219
C39	C	1.437253	0.899188	-0.587608
C40	C	1.436880	0.813570	-0.587352
C41	C	1.518138	0.782123	-0.506189
C42	C	1.488151	0.813282	-0.395464
C43	C	1.487617	0.898927	-0.395952
C44	C	1.629379	0.898846	-0.534579
C45	C	1.628738	0.813194	-0.537006
C46	C	1.518088	0.698264	-0.506166
C47	C	1.518279	1.014365	-0.506235
C48	C	1.792223	0.356700	-0.506184
C49	C	1.908999	0.356704	-0.506193
C50	C	1.518351	1.163528	-0.506217
C51	C	1.518325	1.081214	-0.506251
C52	C	1.518268	0.356619	-0.780196
C53	C	1.518301	0.356589	-0.896972
C54	C	1.585551	0.309218	-0.951854
C55	C	1.585569	0.309186	-1.061578
C56	C	1.451084	0.403902	-1.061530
C57	C	1.451062	0.403930	-0.951807
C58	C	1.623230	0.221811	-1.211559
C59	C	1.690496	0.174447	-1.266444
C60	C	1.793015	0.163090	-1.230853
C61	C	1.828289	0.199110	-1.140379
C62	C	1.761028	0.246479	-1.085499
C63	C	1.658494	0.257821	-1.121088
C64	C	1.413412	0.491306	-0.801825
C65	C	1.346156	0.538680	-0.746943
C66	C	1.243635	0.550044	-0.782532
C67	C	1.208366	0.514038	-0.873010
C68	C	1.275622	0.466664	-0.927892
C69	C	1.378141	0.455299	-0.892295
C70	C	1.518171	0.356708	-0.233195
C71	C	1.518342	0.356529	-0.116419
H72	H	1.118239	0.442728	-0.627843
F73	F	0.662849	0.451667	-0.818612
F74	F	1.172064	0.600478	-0.724130
F75	F	1.036150	0.554272	-0.607490
H76	H	1.539748	0.231047	-1.240541
F77	F	1.099252	0.526133	-0.910892
F78	F	1.798563	0.284813	-0.989217
H79	H	0.913998	0.634106	-0.741972
H80	H	1.455823	0.919730	-0.669976
F81	F	1.522518	0.479195	-0.763921
H82	H	1.396343	0.442447	-1.106190
H83	H	1.374886	0.568005	-0.673278
F84	F	0.736243	0.600873	-0.851516
F85	F	0.776106	0.353766	-0.680166
F86	F	1.562824	0.786662	-0.314036
H87	H	1.661766	0.145120	-1.340109
F88	F	1.329204	0.786875	-0.562802
H89	H	0.919196	0.270670	-0.384512
F90	F	1.711784	0.785205	-0.465176
H91	H	1.651351	0.792826	-0.618494
H92	H	1.023897	0.165337	-0.392032
H93	H	1.355369	0.920777	-0.569059
H94	H	1.287489	0.124398	-0.177563
F95	F	1.114537	0.061235	-0.266329
F96	F	1.374602	0.261739	-0.193733
H97	H	1.252470	0.341556	-0.328232
F98	F	1.381420	0.925131	-0.364551
H99	H	1.455643	0.792500	-0.669454
F100	F	1.561355	0.926012	-0.313982
F101	F	1.708242	0.925328	-0.457111
H102	H	1.640299	0.270668	-0.907210
H103	H	1.407770	0.791900	-0.371008
F104	F	1.937411	0.187030	-1.102515
H105	H	1.847783	0.124525	-1.275548
H106	H	1.656710	0.920388	-0.613945
F107	F	1.238081	0.428342	-1.024187
