data_functionalizedCrystal
_audit_creation_method	'MofGen! by Chris Wilmer'
_symmetry_space_group_name_H-M	'P1'
_symmetry_Int_Tables_number	1
_symmetry_cell_setting	triclinic
loop_
_symmetry_equiv_pos_as_xyz
  x,y,z
_cell_length_a	19.077105
_cell_length_b	25.639239
_cell_length_c	25.639234
_cell_angle_alpha	89.978894
_cell_angle_beta	87.692243
_cell_angle_gamma	87.734929
loop_
_atom_site_label
_atom_site_type_symbol
_atom_site_fract_x
_atom_site_fract_y
_atom_site_fract_z
Zn1	Zn	1.075839	-0.240367	-0.327688
Zn2	Zn	1.075740	-0.327787	-0.240249
Zn3	Zn	0.958160	-0.236852	-0.236758
Zn4	Zn	0.958082	-0.324253	-0.324146
O5	O	1.016955	-0.282315	-0.282210
O6	O	1.174315	-0.254914	-0.319033
O7	O	1.060135	-0.315732	-0.166621
O8	O	0.973845	-0.164155	-0.248841
O9	O	1.174243	-0.319141	-0.254792
O10	O	1.060302	-0.166738	-0.315647
O11	O	0.973750	-0.248922	-0.164055
O12	O	0.859661	-0.245496	-0.245406
O13	O	0.973710	-0.313118	-0.397781
O14	O	0.859603	-0.309709	-0.309610
O15	O	1.060226	-0.251487	-0.400384
O16	O	1.060059	-0.400481	-0.251357
O17	O	0.973615	-0.397885	-0.312995
C18	C	0.834094	-0.276838	-0.276745
C19	C	0.755866	-0.274507	-0.274419
C20	C	1.016837	-0.418154	-0.282183
C21	C	1.016851	-0.476268	-0.282190
C22	C	0.719102	-0.306895	-0.306701
C23	C	0.645598	-0.304698	-0.304519
C24	C	0.608859	-0.270116	-0.270051
C25	C	0.645628	-0.237725	-0.237767
C26	C	0.719131	-0.239919	-0.239953
C27	C	0.389030	-0.259960	-0.259938
C28	C	0.315522	-0.257769	-0.257753
C29	C	0.315498	-0.324742	-0.324505
C30	C	0.389002	-0.326936	-0.326686
C31	C	0.425764	-0.294543	-0.294404
N32	N	0.533726	-0.267871	-0.267818
N33	N	0.500896	-0.296785	-0.296640
C34	C	1.062084	-0.837977	-0.250176
C35	C	1.062111	-0.892582	-0.250183
O36	O	1.100447	-0.921960	-0.222934
N37	N	1.017079	-0.918558	-0.282249
C38	C	0.972022	-0.889925	-0.314312
O39	O	0.933721	-0.917033	-0.341587
C40	C	0.971998	-0.835321	-0.314306
C41	C	1.017028	-0.809348	-0.282235
C42	C	1.107111	-0.812005	-0.218108
C43	C	1.107082	-0.757403	-0.218099
C44	C	1.062027	-0.728775	-0.250159
C45	C	1.017000	-0.754747	-0.282227
C46	C	0.926945	-0.806689	-0.346372
C47	C	0.926926	-0.752082	-0.346364
C48	C	0.971956	-0.726109	-0.314293
C49	C	0.971916	-0.671517	-0.314278
N50	N	1.016949	-0.645542	-0.282213
C51	C	1.062004	-0.674171	-0.250153
C52	C	0.972075	-1.004597	-0.314321
C53	C	0.972094	-1.059200	-0.314324
C54	C	1.062184	-1.061854	-0.250197
C55	C	1.062161	-1.007250	-0.250191
C56	C	1.017107	-0.978622	-0.282256
C57	C	1.061940	-0.559504	-0.250138
C58	C	1.061906	-0.504897	-0.250131
C59	C	0.971818	-0.502248	-0.314260
C60	C	0.971850	-0.556850	-0.314266
C61	C	1.016917	-0.585476	-0.282203
O62	O	0.933602	-0.642105	-0.341516
O63	O	1.100304	-0.647056	-0.222888
C64	C	1.200530	-0.287814	-0.287697
C65	C	1.278759	-0.290157	-0.290035
C66	C	1.016970	-0.282300	-0.418584
C67	C	1.016977	-0.282294	-0.476698
C68	C	1.017093	-0.145946	-0.282250
C69	C	1.017152	-0.087834	-0.282267
C70	C	0.971975	-0.314321	-0.726532
C71	C	0.971963	-0.314332	-0.671927
O72	O	0.933633	-0.341613	-0.642533
N73	N	1.017003	-0.282253	-0.645973
C74	C	1.062055	-0.250156	-0.674626
O75	O	1.100364	-0.222871	-0.647535
C76	C	1.062063	-0.250142	-0.729229
C77	C	1.017024	-0.282228	-0.755181
C78	C	0.926939	-0.346403	-0.752484
C79	C	0.926953	-0.346393	-0.807085
C80	C	0.972002	-0.314299	-0.835734
C81	C	1.017038	-0.282217	-0.809782
C82	C	1.107110	-0.218043	-0.757881
C83	C	1.107114	-0.218032	-0.812488
C84	C	1.062075	-0.250117	-0.838440
C85	C	1.062100	-0.250113	-0.893032
N86	N	1.017059	-0.282192	-0.918987
C87	C	0.972010	-0.314286	-0.890338
C88	C	1.062033	-0.250187	-0.559954
C89	C	1.062029	-0.250203	-0.505352
C90	C	0.971936	-0.314379	-0.502657
C91	C	0.971944	-0.314365	-0.557261
C92	C	1.016992	-0.282266	-0.585909
C93	C	0.972042	-0.314261	-1.005004
C94	C	0.972062	-0.314249	-1.059610
C95	C	1.062152	-0.250071	-1.062299
C96	C	1.062135	-0.250085	-1.007698
C97	C	1.017075	-0.282181	-0.979052
O98	O	1.100408	-0.222845	-0.922460
O99	O	0.933701	-0.341561	-0.917435
C100	C	1.016981	-0.282293	-0.146368
C101	C	1.017111	-0.282155	-0.088259
H102	H	0.749010	-0.335057	-0.334767
H103	H	0.749063	-0.213543	-0.213668
H104	H	1.143804	-0.835309	-0.192001
H105	H	0.935269	-0.340491	-0.578387
O106	O	0.878334	-0.381020	-0.721598
H107	H	0.909789	-0.408576	-0.697654
O108	O	1.110486	-0.476887	-0.215544
H109	H	1.102899	-0.434107	-0.220920
O110	O	0.923325	-0.348987	-0.471759
H111	H	0.954779	-0.376539	-0.447809
O112	O	0.923221	-0.471364	-0.348836
H113	H	0.935255	-0.482176	-0.390239
O114	O	0.605876	-0.339632	-0.339291
H115	H	0.572366	-0.365157	-0.314791
O116	O	1.155689	-0.183437	-0.729899
H117	H	1.143652	-0.142041	-0.740028
H118	H	1.098640	-0.582805	-0.224031
H119	H	1.098711	-0.224082	-0.484227
O120	O	1.110634	-0.215572	-0.590853
H121	H	1.141954	-0.193275	-0.563628
H122	H	1.143752	-0.736260	-0.191986
O123	O	0.275882	-0.220484	-0.220566
H124	H	0.242406	-0.192924	-0.243012
H125	H	0.615709	-0.209565	-0.209705
O126	O	0.428632	-0.364239	-0.363856
H127	H	0.462159	-0.341881	-0.391492
H128	H	0.285558	-0.351115	-0.350788
O129	O	0.878364	-0.380990	-0.835073
H130	H	0.847034	-0.403300	-0.805971
H131	H	0.935380	-0.981290	-0.340431
O132	O	0.923519	-1.087213	-0.348908
H133	H	0.935547	-1.077064	-0.390308
H134	H	0.418954	-0.233587	-0.233648
O135	O	0.878328	-0.721207	-0.380950
H136	H	0.885874	-0.678873	-0.375563
O137	O	1.110735	-0.979237	-0.215607
H138	H	1.142070	-1.008324	-0.193319
H139	H	1.098873	-1.085173	-0.224094
H140	H	0.890274	-0.827826	-0.372485
H141	H	0.935185	-0.577997	-0.340382
O142	O	0.923444	-0.348878	-0.974109
H143	H	0.887649	-0.324409	-0.948172
H144	H	0.935385	-0.340379	-1.080737
H145	H	1.143795	-0.191890	-0.835811
H146	H	1.098814	-0.223962	-0.986567
O147	O	1.110719	-0.215440	-1.093203
H148	H	1.103143	-0.220816	-1.135531
