data_functionalizedCrystal
_audit_creation_method	'MofGen! by Chris Wilmer'
_symmetry_space_group_name_H-M	'P1'
_symmetry_Int_Tables_number	1
_symmetry_cell_setting	triclinic
loop_
_symmetry_equiv_pos_as_xyz
  x,y,z
_cell_length_a	27.732048
_cell_length_b	19.188930
_cell_length_c	18.266242
_cell_angle_alpha	90.011475
_cell_angle_beta	89.996455
_cell_angle_gamma	97.106281
loop_
_atom_site_label
_atom_site_type_symbol
_atom_site_fract_x
_atom_site_fract_y
_atom_site_fract_z
O1	O	0.641184	-0.083079	-0.060795
O2	O	0.500429	-0.095711	-0.060818
O3	O	0.574869	0.012287	-0.060791
O4	O	0.566745	-0.191077	-0.060821
O5	O	0.574856	0.012292	0.060971
O6	O	0.500417	-0.095706	0.060944
O7	O	0.641172	-0.083074	0.060967
Zn8	Zn	0.570792	-0.089389	0.080288
Zn9	Zn	0.570809	-0.089396	-0.080139
O10	O	0.566732	-0.191071	0.060941
C11	C	0.482415	-0.095443	0.000060
C12	C	0.428758	-0.094645	0.000052
N13	N	0.570784	-0.089383	0.189775
C14	C	0.574599	0.038299	0.000092
C15	C	0.573810	0.115798	0.000098
C16	C	0.090123	-0.153438	0.000075
C17	C	-0.111546	-0.150475	0.000082
O18	O	-0.142637	-0.204237	0.000106
N19	N	-0.130866	-0.086437	0.000090
C20	C	-0.099764	-0.023135	0.000101
O21	O	-0.120824	0.031401	0.000116
C22	C	0.101903	-0.026098	0.000100
C23	C	0.121220	-0.090140	0.000084
C24	C	0.109440	-0.217475	0.000060
C25	C	0.159854	-0.218215	0.000055
C26	C	0.190951	-0.154917	0.000064
C27	C	0.171634	-0.090880	0.000078
C28	C	0.133003	0.037203	0.000116
C29	C	0.183423	0.036457	0.000117
C30	C	0.202740	-0.027586	0.000102
C31	C	0.253145	-0.028323	0.000082
N32	N	0.272465	-0.092361	0.000073
C33	C	0.241368	-0.155658	0.000064
C34	C	-0.205643	-0.021584	0.000101
C35	C	-0.256060	-0.020843	0.000100
C36	C	-0.267838	-0.148183	0.000082
C37	C	-0.217420	-0.148923	0.000078
C38	C	-0.186324	-0.085622	0.000093
C39	C	0.347242	-0.157208	0.000052
C40	C	0.397661	-0.157942	0.000043
C41	C	0.409435	-0.030602	0.000065
C42	C	0.359020	-0.029867	0.000070
C43	C	0.327924	-0.093176	0.000066
O44	O	0.284265	0.025410	0.000066
O45	O	0.262437	-0.210187	0.000066
C46	C	0.039708	-0.152698	0.000081
C47	C	0.020391	-0.088661	0.000096
C48	C	0.051489	-0.025363	0.000105
C49	C	-0.030025	-0.087920	0.000095
C50	C	-0.061122	-0.151217	0.000086
C51	C	-0.041803	-0.215255	0.000078
C52	C	0.008611	-0.215995	0.000072
C53	C	0.032169	0.038675	0.000113
C54	C	-0.018246	0.039409	0.000118
C55	C	-0.049343	-0.023888	0.000109
C56	C	0.659186	-0.083341	0.000087
C57	C	0.712843	-0.084140	0.000091
C58	C	0.567002	-0.217083	0.000056
C59	C	0.567791	-0.294583	0.000045
C60	C	0.617488	0.161001	0.000109
C61	C	0.616746	0.233820	0.000097
C62	C	0.572323	0.261433	0.000089
C63	C	0.528639	0.216220	0.000074
C64	C	0.529382	0.143403	0.000079
N65	N	0.538363	0.369223	0.041521
N66	N	0.537660	0.438397	0.041518
C67	C	0.570081	0.480827	0.000074
N68	N	0.603240	0.451471	-0.041359
N69	N	0.603944	0.382291	-0.041353
C70	C	0.571512	0.340390	0.000084
C71	C	0.612959	0.604989	0.000071
C72	C	0.612215	0.677809	0.000054
C73	C	0.524106	0.660208	0.000039
C74	C	0.524851	0.587390	0.000048
C75	C	0.569279	0.559785	0.000067
N76	N	0.570820	-0.089396	-0.189626
C77	C	0.603757	-0.041585	0.228096
C78	C	0.603760	-0.041582	0.304741
C79	C	0.570795	-0.089389	0.343062
C80	C	0.537817	-0.137191	0.304732
C81	C	0.537811	-0.137188	0.228088
N82	N	0.564512	-0.151236	0.463385
N83	N	0.564520	-0.151237	0.536193
C84	C	0.570809	-0.089399	0.573984
N85	N	0.577099	-0.027558	0.536217
N86	N	0.577093	-0.027559	0.463403
C87	C	0.570797	-0.089397	0.426169
C88	C	0.603786	-0.041593	0.695412
C89	C	0.603786	-0.041589	0.772058
C90	C	0.537845	-0.137204	0.772048
C91	C	0.537843	-0.137202	0.695403
C92	C	0.570816	-0.089397	0.657090
H93	H	0.413385	-0.210095	0.000030
H94	H	0.343292	0.022281	0.000072
C95	C	0.669426	-0.025484	0.141606
C96	C	0.639841	0.011080	0.185850
H97	H	0.691657	0.007065	0.115489
H98	H	0.649779	-0.054062	0.107920
H99	H	0.686912	-0.054244	0.171407
H100	H	0.622352	0.039836	0.156048
H101	H	0.659490	0.039670	0.219539
C102	C	0.454519	0.105969	-0.062527
C103	C	0.481366	0.093713	0.000072
H104	H	0.424875	0.075294	-0.062526
H105	H	0.472746	0.097635	-0.104975
H106	H	0.447722	0.153290	-0.062526
H107	H	0.488166	0.046393	0.000069
H108	H	0.463136	0.102041	0.042531
H109	H	-0.033968	0.091564	0.000124
H110	H	0.630634	-0.002666	0.664216
H111	H	0.653664	0.138530	0.000122
C112	C	0.667034	0.325912	-0.062481
C113	C	0.664761	0.283519	0.000113
H114	H	0.696678	0.356590	-0.062470
H115	H	0.640473	0.352771	-0.062486
H116	H	0.665503	0.297125	-0.104937
H117	H	0.666289	0.312306	0.042569
H118	H	0.691330	0.256658	0.000125
C119	C	0.488379	0.320031	0.000072
C120	C	0.479808	0.246570	0.000068
H121	H	0.458231	0.338765	0.000070
H122	H	0.506359	0.335567	-0.042383
H123	H	0.506354	0.335580	0.042539
H124	H	0.461837	0.231020	-0.042402
H125	H	0.461821	0.231027	0.042528
H126	H	0.649134	0.582512	0.000083
H127	H	0.024334	-0.268144	0.000060
H128	H	-0.067131	-0.266794	0.000067
H129	H	0.511003	-0.176126	0.803249
C130	C	0.699380	0.687888	0.000090
C131	C	0.660230	0.727500	0.000068
H132	H	0.729022	0.718567	0.000104
H133	H	0.697845	0.659112	-0.042366
H134	H	0.697825	0.659129	0.042557
H135	H	0.661783	0.756255	-0.042402
H136	H	0.661765	0.756288	0.042528
H137	H	0.117285	0.089353	0.000129
H138	H	0.487936	0.682690	0.000029
C139	C	0.437688	0.577309	0.000043
C140	C	0.476838	0.537698	0.000049
H141	H	0.408046	0.546630	0.000047
H142	H	0.439234	0.606064	-0.042418
H143	H	0.439231	0.606090	0.042504
H144	H	0.475297	0.508921	-0.042415
H145	H	0.475292	0.508932	0.042514
H146	H	0.434763	0.020933	0.000069
C147	C	0.038736	0.164614	0.000123
C148	C	0.066347	0.108257	0.000116
H149	H	0.059836	0.207574	0.000117
H150	H	0.018830	0.162256	0.042584
H151	H	0.018823	0.162239	-0.042338
H152	H	0.086257	0.110630	0.042580
H153	H	0.086261	0.110617	-0.042350
H154	H	0.175576	-0.270364	0.000042
H155	H	-0.201697	-0.201072	0.000069
H156	H	0.630611	-0.002658	0.335947
C157	C	0.508552	-0.179656	0.422218
C158	C	0.501582	-0.189743	0.346852
H159	H	0.486182	-0.212103	0.448219
H160	H	0.503403	-0.133115	0.434790
H161	H	0.540797	-0.186920	0.434758
H162	H	0.469338	-0.182473	0.334311
H163	H	0.506727	-0.236295	0.334275
C164	C	0.472633	-0.231699	0.235779
C165	C	0.501569	-0.189737	0.185962
H166	H	0.450262	-0.264144	0.209769
H167	H	0.455310	-0.202809	0.265679
H168	H	0.492705	-0.256613	0.265666
H169	H	0.481497	-0.164819	0.156078
H170	H	0.518893	-0.218631	0.156049
C171	C	0.632445	0.079565	0.795670
C172	C	0.640034	0.010955	0.814181
H173	H	0.654826	0.112002	0.821672
H174	H	0.600209	0.086829	0.808244
H175	H	0.637161	0.086395	0.744538
H176	H	0.635315	0.004123	0.865312
H177	H	0.672278	0.003688	0.801611
C178	C	0.340677	-0.283153	0.000019
C179	C	0.313066	-0.226797	0.000038
H180	H	0.319578	-0.326113	0.000002
H181	H	0.360584	-0.280792	0.042478
H182	H	0.360590	-0.280780	-0.042444
H183	H	0.293156	-0.229167	0.042505
H184	H	0.293152	-0.229159	-0.042425
C185	C	0.102875	-0.343414	0.000029
C186	C	0.075263	-0.287059	0.000044
H187	H	0.081777	-0.386375	0.000010
H188	H	0.122779	-0.341051	0.042491
H189	H	0.122791	-0.341039	-0.042432
H190	H	0.055350	-0.289431	0.042508
H191	H	0.055350	-0.289423	-0.042422
C192	C	-0.261527	0.087925	-0.062477
C193	C	-0.277288	0.049555	0.000108
H194	H	-0.274629	0.131389	-0.062465
H195	H	-0.272214	0.061888	-0.104934
H196	H	-0.227050	0.096530	-0.062467
H197	H	-0.311765	0.040946	0.000096
H198	H	-0.266604	0.075598	0.042577
C199	C	-0.350356	-0.203578	0.000081
C200	C	-0.302027	-0.217761	0.000077
H201	H	-0.371463	-0.246531	0.000086
H202	H	-0.356193	-0.177307	-0.042376
H203	H	-0.356191	-0.177287	0.042546
H204	H	-0.296191	-0.244049	-0.042391
H205	H	-0.296188	-0.244043	0.042539
C206	C	-0.142114	0.051465	-0.062484
C207	C	-0.171465	0.048004	0.000109
H208	H	-0.121014	0.094424	-0.062478
H209	H	-0.162027	0.049099	-0.104936
H210	H	-0.123390	0.013223	-0.062478
H211	H	-0.190191	0.086243	0.000101
H212	H	-0.151550	0.050376	0.042572
H213	H	0.208740	0.088006	0.000130
C214	C	0.472670	-0.231716	0.703095
C215	C	0.501603	-0.189752	0.653276
H216	H	0.450298	-0.264160	0.677086
H217	H	0.455348	-0.202826	0.732997
H218	H	0.492743	-0.256629	0.732979
H219	H	0.481530	-0.164834	0.623395
H220	H	0.518927	-0.218645	0.623361
