data_functionalizedCrystal
_audit_creation_method	'MofGen! by Chris Wilmer'
_symmetry_space_group_name_H-M	'P1'
_symmetry_Int_Tables_number	1
_symmetry_cell_setting	triclinic
loop_
_symmetry_equiv_pos_as_xyz
  x,y,z
_cell_length_a	18.050590
_cell_length_b	18.050590
_cell_length_c	18.050582
_cell_angle_alpha	89.976663
_cell_angle_beta	90.000767
_cell_angle_gamma	90.007719
loop_
_atom_site_label
_atom_site_type_symbol
_atom_site_fract_x
_atom_site_fract_y
_atom_site_fract_z
Zn1	Zn	1.135342	-0.295921	-0.419598
Zn2	Zn	1.635342	0.204079	0.080402
Zn3	Zn	1.135274	-0.420105	-0.295406
Zn4	Zn	1.635274	0.079895	0.204594
Zn5	Zn	1.011162	-0.295910	-0.295456
Zn6	Zn	1.511162	0.204090	0.204544
Zn7	Zn	1.011131	-0.420051	-0.419589
Zn8	Zn	1.511131	0.079949	0.080411
O9	O	1.073227	-0.357997	-0.357512
O10	O	1.573227	0.142003	0.142488
O11	O	1.239258	-0.312422	-0.403106
O12	O	1.739258	0.187578	0.096894
O13	O	1.118795	-0.403648	-0.191488
O14	O	1.618795	0.096352	0.308512
O15	O	1.027676	-0.191987	-0.311948
O16	O	1.527676	0.308013	0.188052
O17	O	1.239208	-0.403659	-0.311863
O18	O	1.739208	0.096341	0.188137
O19	O	1.118911	-0.191995	-0.403155
O20	O	1.618911	0.308005	0.096845
O21	O	1.027610	-0.312402	-0.191525
O22	O	1.527610	0.187598	0.308475
O23	O	0.907233	-0.312350	-0.311939
O24	O	1.407233	0.187650	0.188061
O25	O	1.027623	-0.403567	-0.523514
O26	O	1.527623	0.096433	-0.023514
O27	O	0.907210	-0.403555	-0.403139
O28	O	1.407210	0.096445	0.096861
O29	O	1.118881	-0.312370	-0.523521
O30	O	1.618881	0.187630	-0.023521
O31	O	1.118765	-0.524022	-0.311854
O32	O	1.618765	-0.024022	0.188146
O33	O	1.027557	-0.523982	-0.403091
O34	O	1.527557	-0.023982	0.096909
C35	C	0.880275	-0.357946	-0.357544
C36	C	1.380275	0.142054	0.142456
C37	C	0.797729	-0.357942	-0.357575
C38	C	1.297729	0.142058	0.142425
C39	C	0.598288	-0.407682	-0.407052
C40	C	1.098288	0.092318	0.092948
C41	C	0.548883	-0.339967	-0.425328
C42	C	1.048883	0.160033	0.074672
C43	C	0.646599	-0.357984	-0.357539
C44	C	1.146599	0.142016	0.142461
C45	C	0.548922	-0.425737	-0.339262
C46	C	1.048922	0.074263	0.160738
C47	C	0.500614	-0.358030	-0.357505
C48	C	1.000614	0.141970	0.142495
C49	C	0.598282	-0.290233	-0.375850
C50	C	1.098282	0.209767	0.124150
C51	C	0.598324	-0.376049	-0.289753
C52	C	1.098324	0.123951	0.210247
C53	C	0.548942	-0.308287	-0.308004
C54	C	1.048942	0.191713	0.191996
C55	C	0.730697	-0.357958	-0.357560
C56	C	1.230697	0.142042	0.142440
C57	C	0.416517	-0.358047	-0.357484
C58	C	0.916517	0.141953	0.142516
C59	C	1.073170	-0.550949	-0.357482
C60	C	1.573170	-0.050949	0.142518
C61	C	1.073214	-0.633494	-0.357495
C62	C	1.573214	-0.133494	0.142505
C63	C	1.122915	-0.832940	-0.307949
C64	C	1.622915	-0.332940	0.192051
C65	C	1.141051	-0.882282	-0.375725
C66	C	1.641051	-0.382282	0.124275
C67	C	1.073256	-0.784625	-0.357524
C68	C	1.573256	-0.284625	0.142476
C69	C	1.055196	-0.882364	-0.289779
C70	C	1.555196	-0.382364	0.210221
C71	C	1.073298	-0.930610	-0.357547
C72	C	1.573298	-0.430610	0.142453
C73	C	1.091426	-0.832880	-0.425335
C74	C	1.591426	-0.332880	0.074665
C75	C	1.005539	-0.832958	-0.339344
C76	C	1.505539	-0.332958	0.160656
C77	C	1.023649	-0.882278	-0.407166
C78	C	1.523649	-0.382278	0.092834
C79	C	1.073233	-0.700527	-0.357510
C80	C	1.573233	-0.200527	0.142490
C81	C	1.073320	-1.014706	-0.357568
C82	C	1.573320	-0.514706	0.142432
C83	C	1.266933	-0.358048	-0.357480
C84	C	1.766933	0.141952	0.142520
C85	C	1.349478	-0.358070	-0.357467
C86	C	1.849478	0.141930	0.142533
C87	C	1.073256	-0.357964	-0.551218
C88	C	1.573256	0.142036	-0.051218
C89	C	1.073269	-0.357950	-0.633763
C90	C	1.573269	0.142050	-0.133763
C91	C	1.073305	-0.164291	-0.357558
C92	C	1.573305	0.335709	0.142442
C93	C	1.073338	-0.081745	-0.357578
C94	C	1.573338	0.418255	0.142422
C95	C	1.023680	-0.407475	-0.833211
C96	C	1.523680	0.092525	-0.333211
C97	C	1.091439	-0.425641	-0.882583
C98	C	1.591439	0.074359	-0.382583
C99	C	1.073305	-0.357893	-0.784894
C100	C	1.573305	0.142107	-0.284894
C101	C	1.005584	-0.339706	-0.882603
C102	C	1.505584	0.160294	-0.382603
C103	C	1.073335	-0.357840	-0.930879
C104	C	1.573335	0.142160	-0.430879
C105	C	1.141099	-0.376095	-0.833179
C106	C	1.641099	0.123905	-0.333179
C107	C	1.055199	-0.290128	-0.833195
C108	C	1.555199	0.209872	-0.333195
C109	C	1.123004	-0.308269	-0.882545
C110	C	1.623004	0.191731	-0.382545
C111	C	1.073287	-0.357926	-0.700796
C112	C	1.573287	0.142074	-0.200796
C113	C	1.073360	-0.357807	-1.014976
C114	C	1.573360	0.142193	-0.514976
C115	C	1.073241	-0.357976	-0.164560
C116	C	1.573241	0.142024	0.335440
C117	C	1.073372	-0.357781	-0.082014
C118	C	1.573372	0.142219	0.417986
H119	H	0.619873	-0.232937	-0.391360
H120	H	1.119873	0.267063	0.108640
H121	H	0.981754	-0.449460	-0.811549
H122	H	1.481754	0.050540	-0.311549
H123	H	1.106771	-0.482926	-0.904277
H124	H	1.606771	0.017074	-0.404277
H125	H	1.039903	-0.904100	-0.232479
H126	H	1.539903	-0.404100	0.267521
H127	H	1.198399	-0.391520	-0.811561
H128	H	1.698399	0.108480	-0.311561
H129	H	1.039846	-0.232860	-0.811484
H130	H	1.539846	0.267140	-0.311484
H131	H	0.620058	-0.391334	-0.232459
H132	H	1.120058	0.108666	0.267541
H133	H	1.164925	-0.811275	-0.266069
H134	H	1.664925	-0.311275	0.233931
H135	H	0.527412	-0.266230	-0.266118
H136	H	1.027412	0.233770	0.233882
H137	H	0.527236	-0.483016	-0.323820
H138	H	1.027236	0.016984	0.176180
H139	H	1.165031	-0.266316	-0.904070
H140	H	1.665031	0.233684	-0.404070
H141	H	1.198335	-0.903949	-0.391116
H142	H	1.698335	-0.403949	0.108884
H143	H	0.948301	-0.324346	-0.904313
H144	H	1.448301	0.175654	-0.404313
H145	H	1.106662	-0.811235	-0.482685
H146	H	1.606662	-0.311235	0.017315
H147	H	0.981672	-0.903805	-0.449148
H148	H	1.481672	-0.403805	0.050852
H149	H	0.619957	-0.449636	-0.448970
H150	H	1.119957	0.050364	0.051030
H151	H	0.527166	-0.324702	-0.482639
H152	H	1.027166	0.175298	0.017361
H153	H	0.948271	-0.811275	-0.323932
H154	H	1.448271	-0.311275	0.176068
