data_functionalizedCrystal
_audit_creation_method	'MofGen! by Chris Wilmer'
_symmetry_space_group_name_H-M	'P1'
_symmetry_Int_Tables_number	1
_symmetry_cell_setting	triclinic
loop_
_symmetry_equiv_pos_as_xyz
  x,y,z
_cell_length_a	12.827893
_cell_length_b	16.625539
_cell_length_c	12.827892
_cell_angle_alpha	89.974941
_cell_angle_beta	90.015553
_cell_angle_gamma	89.981586
loop_
_atom_site_label
_atom_site_type_symbol
_atom_site_fract_x
_atom_site_fract_y
_atom_site_fract_z
Zn1	Zn	1.597663	-0.455881	-0.416027
Zn2	Zn	1.930996	-0.122548	-0.082693
Zn3	Zn	2.264329	0.210785	0.250640
Zn4	Zn	1.597559	-0.321056	-0.590790
Zn5	Zn	1.930892	0.012277	-0.257456
Zn6	Zn	2.264226	0.345611	0.075877
Zn7	Zn	1.422906	-0.321067	-0.416064
Zn8	Zn	1.756239	0.012267	-0.082730
Zn9	Zn	2.089573	0.345600	0.250603
Zn10	Zn	1.422889	-0.455851	-0.590727
Zn11	Zn	1.756223	-0.122518	-0.257394
Zn12	Zn	2.089556	0.210816	0.075940
O13	O	1.510254	-0.388464	-0.503402
O14	O	1.843588	-0.055130	-0.170068
O15	O	2.176921	0.278203	0.163265
O16	O	1.743885	-0.438004	-0.439220
O17	O	2.077218	-0.104671	-0.105887
O18	O	2.410552	0.228662	0.227447
O19	O	1.574354	-0.208225	-0.567654
O20	O	1.907688	0.125108	-0.234320
O21	O	2.241021	0.458442	0.099013
O22	O	1.446138	-0.338967	-0.269823
O23	O	1.779472	-0.005634	0.063511
O24	O	2.112805	0.327699	0.396844
O25	O	1.743809	-0.338949	-0.567618
O26	O	2.077142	-0.005616	-0.234284
O27	O	2.410475	0.327718	0.099049
O28	O	1.574531	-0.438015	-0.269796
O29	O	1.907865	-0.104682	0.063538
O30	O	2.241198	0.228652	0.396871
O31	O	1.446038	-0.208233	-0.439283
O32	O	1.779371	0.125100	-0.105950
O33	O	2.112704	0.458434	0.227383
O34	O	1.276668	-0.338938	-0.439222
O35	O	1.610001	-0.005605	-0.105889
O36	O	1.943335	0.327729	0.227444
O37	O	1.446110	-0.568687	-0.567511
O38	O	1.779443	-0.235354	-0.234177
O39	O	2.112777	0.097979	0.099156
O40	O	1.276656	-0.437963	-0.567547
O41	O	1.609989	-0.104630	-0.234213
O42	O	1.943322	0.228703	0.099120
O43	O	1.574515	-0.568710	-0.439159
O44	O	1.907848	-0.235376	-0.105826
O45	O	2.241182	0.097957	0.227507
O46	O	1.574338	-0.338920	-0.737017
O47	O	1.907671	-0.005586	-0.403684
O48	O	2.241005	0.327747	-0.070351
O49	O	1.446009	-0.437953	-0.736971
O50	O	1.779343	-0.104620	-0.403638
O51	O	2.112676	0.228714	-0.070305
C52	C	1.238744	-0.388449	-0.503382
C53	C	1.572078	-0.055116	-0.170049
C54	C	1.905411	0.278218	0.163284
C55	C	1.122591	-0.388462	-0.503399
C56	C	1.455925	-0.055129	-0.170066
C57	C	1.789258	0.278205	0.163267
C58	C	0.950784	-0.437399	-0.567014
C59	C	1.284117	-0.104066	-0.233680
C60	C	1.617450	0.229267	0.099653
C61	C	1.070834	-0.437387	-0.566997
C62	C	1.404167	-0.104054	-0.233664
C63	C	1.737501	0.229279	0.099669
C64	C	1.510322	-0.598773	-0.503324
C65	C	1.843656	-0.265439	-0.169991
C66	C	2.176989	0.067894	0.163343
C67	C	1.510351	-0.688394	-0.503291
C68	C	1.843684	-0.355061	-0.169957
C69	C	2.177018	-0.021727	0.163376
C70	C	1.510399	-1.016570	-0.503174
C71	C	1.843733	-0.683236	-0.169840
C72	C	2.177066	-0.349903	0.163493
C73	C	1.510383	-0.925261	-0.503210
C74	C	1.843716	-0.591928	-0.169876
C75	C	2.177050	-0.258595	0.163457
C76	C	1.510376	-0.852485	-0.503233
C77	C	1.843709	-0.519151	-0.169900
C78	C	2.177042	-0.185818	0.163434
C79	C	1.510358	-0.761170	-0.503267
C80	C	1.843692	-0.427837	-0.169934
C81	C	2.177025	-0.094504	0.163399
C82	C	1.782824	-0.388479	-0.503422
C83	C	2.116158	-0.055146	-0.170088
C84	C	2.449491	0.278188	0.163245
C85	C	1.898977	-0.388485	-0.503430
C86	C	2.232311	-0.055152	-0.170097
C87	C	2.565644	0.278181	0.163236
C88	C	1.510189	-0.388450	-0.774912
C89	C	1.843522	-0.055116	-0.441578
C90	C	2.176856	0.278217	-0.108245
C91	C	1.510257	-0.388470	-0.891065
C92	C	1.843590	-0.055137	-0.557731
C93	C	2.176923	0.278196	-0.224398
C94	C	1.510247	-0.178973	-0.503404
C95	C	1.843580	0.154360	-0.170071
C96	C	2.176913	0.487694	0.163263
C97	C	1.510420	-0.089352	-0.503143
C98	C	1.843754	0.243981	-0.169809
C99	C	2.177087	0.577314	0.163524
C100	C	1.573833	-0.339520	-0.942838
C101	C	1.907166	-0.006187	-0.609504
C102	C	2.240500	0.327147	-0.276171
C103	C	1.573905	-0.339540	-1.062888
C104	C	1.907238	-0.006207	-0.729555
C105	C	2.240571	0.327126	-0.396221
C106	C	1.510348	-0.388496	-0.230832
C107	C	1.843682	-0.055162	0.102502
C108	C	2.177015	0.278171	0.435835
C109	C	1.510388	-0.388509	-0.114678
C110	C	1.843722	-0.055176	0.218655
C111	C	2.177055	0.278157	0.551988
H112	H	1.078046	-0.346586	-0.448957
H113	H	1.411379	-0.013253	-0.115623
H114	H	1.744713	0.320081	0.217710
F115	F	0.892594	-0.492139	-0.638197
F116	F	1.225927	-0.158806	-0.304864
F117	F	1.559260	0.174528	0.028470
F118	F	1.439233	-0.443286	-1.056494
F119	F	1.772566	-0.109953	-0.723160
F120	F	2.105900	0.223380	-0.389827
H121	H	1.455883	-0.430397	-0.935617
H122	H	1.789217	-0.097064	-0.602283
H123	H	2.122550	0.236270	-0.268950
H124	H	1.115386	-0.479268	-0.621428
H125	H	1.448719	-0.145935	-0.288095
H126	H	1.782053	0.187399	0.045238
H127	H	0.943501	-0.346597	-0.448986
H128	H	1.276834	-0.013263	-0.115653
H129	H	1.610168	0.320070	0.217680
F130	F	1.644917	-0.284726	-0.884611
F131	F	1.978250	0.048608	-0.551277
F132	F	2.311584	0.381941	-0.217944
H133	H	1.628332	-0.297630	-1.107412
H134	H	1.961665	0.035703	-0.774078
H135	H	2.294999	0.369037	-0.440745
