data_functionalizedCrystal
_audit_creation_method	'MofGen! by Chris Wilmer'
_symmetry_space_group_name_H-M	'P1'
_symmetry_Int_Tables_number	1
_symmetry_cell_setting	triclinic
loop_
_symmetry_equiv_pos_as_xyz
  x,y,z
_cell_length_a	15.944551
_cell_length_b	15.944499
_cell_length_c	15.021413
_cell_angle_alpha	90.002729
_cell_angle_beta	89.990044
_cell_angle_gamma	83.488174
loop_
_atom_site_label
_atom_site_type_symbol
_atom_site_fract_x
_atom_site_fract_y
_atom_site_fract_z
O1	O	0.108132	1.114539	-0.074087
O2	O	0.608132	1.614539	0.425913
O3	O	0.121533	0.869983	-0.074078
O4	O	0.621533	1.369983	0.425922
O5	O	-0.007443	0.998939	-0.074075
O6	O	0.492557	1.498939	0.425925
O7	O	0.237109	0.985582	-0.074090
O8	O	0.737109	1.485582	0.425910
O9	O	-0.007461	0.998953	0.073989
O10	O	0.492539	1.498953	0.573989
O11	O	0.121516	0.869997	0.073987
O12	O	0.621516	1.369997	0.573987
O13	O	0.108115	1.114553	0.073977
O14	O	0.608115	1.614553	0.573977
Zn15	Zn	0.114813	0.992277	0.097490
Zn16	Zn	0.614813	1.492277	0.597490
Zn17	Zn	0.114835	0.992258	-0.097591
Zn18	Zn	0.614835	1.492258	0.402409
O19	O	0.237091	0.985597	0.073974
O20	O	0.737091	1.485597	0.573974
C21	C	0.120976	0.838695	-0.000044
C22	C	0.620976	1.338695	0.499956
C23	C	0.119331	0.745447	-0.000040
C24	C	0.619331	1.245447	0.499960
C25	C	0.194263	0.453911	-0.000058
C26	C	0.694263	0.953911	0.499942
C27	C	0.155320	0.514933	-0.073061
C28	C	0.655320	1.014933	0.426939
C29	C	0.113355	0.409810	-0.000060
C30	C	0.613355	0.909810	0.499940
C31	C	0.155282	0.514933	0.072919
C32	C	0.655282	1.014933	0.572919
C33	C	0.116296	0.574719	-0.000049
C34	C	0.616296	1.074719	0.499951
C35	C	0.074389	0.469605	-0.073123
C36	C	0.574389	0.969605	0.426877
C37	C	0.074362	0.469598	0.072922
C38	C	0.574362	0.969598	0.572922
C39	C	0.035360	0.530603	-0.000098
C40	C	0.535360	1.030603	0.499902
C41	C	0.111663	0.314810	-0.000068
C42	C	0.611663	0.814810	0.499932
C43	C	0.117981	0.669718	-0.000048
C44	C	0.617981	1.169718	0.499952
C45	C	-0.038746	0.998392	-0.000042
C46	C	0.461254	1.498392	0.499958
C47	C	-0.131992	0.996729	-0.000042
C48	C	0.368008	1.496729	0.499958
C49	C	-0.346833	0.912823	-0.000051
C50	C	0.153167	1.412823	0.499949
C51	C	-0.407866	0.951793	0.072952
C52	C	0.092134	1.451793	0.572952
C53	C	-0.302717	0.993722	-0.000049
C54	C	0.197283	1.493722	0.499951
C55	C	-0.407832	0.951798	-0.073027
C56	C	0.092168	1.451798	0.426973
C57	C	-0.467629	0.990811	-0.000059
C58	C	0.032371	1.490811	0.499941
C59	C	-0.362522	1.032715	0.073015
C60	C	0.137478	1.532715	0.573015
C61	C	-0.362482	1.032708	-0.073031
C62	C	0.137518	1.532708	0.426969
C63	C	-0.423497	1.071737	-0.000010
C64	C	0.076503	1.571737	0.499990
C65	C	-0.207715	0.995397	-0.000042
C66	C	0.292285	1.495397	0.499958
C67	C	-0.562630	0.989143	-0.000059
C68	C	-0.062630	1.489143	0.499941
C69	C	0.268394	0.986144	-0.000060
C70	C	0.768394	1.486144	0.499940
C71	C	0.361640	0.987806	-0.000067
C72	C	0.861640	1.487806	0.499933
C73	C	0.108672	1.145840	-0.000058
C74	C	0.608672	1.645840	0.499942
C75	C	0.110317	1.239089	-0.000068
C76	C	0.610317	1.739089	0.499932
N77	N	0.114845	0.992246	-0.230728
N78	N	0.614845	1.492246	0.269272
C79	C	0.174363	0.932505	-0.470407
C80	C	0.674363	1.432505	0.029593
C81	C	0.098404	0.916394	-0.529739
C82	C	0.598404	1.416394	-0.029739
C83	C	0.114827	0.992263	-0.412335
C84	C	0.614827	1.492263	0.087665
C85	C	0.190769	1.008351	-0.529746
C86	C	0.690769	1.508351	-0.029746
C87	C	0.114816	0.992277	-0.587759
C88	C	0.614816	1.492277	-0.087759
C89	C	0.038829	0.976114	-0.470360
C90	C	0.538829	1.476114	0.029640
C91	C	0.131244	1.068104	-0.470362
C92	C	0.631244	1.568104	0.029638
C93	C	0.055230	1.052025	-0.529667
C94	C	0.555230	1.552025	-0.029667
C95	C	0.114834	0.992252	-0.311278
C96	C	0.614834	1.492252	0.188722
C97	C	0.114800	0.992288	-0.688815
C98	C	0.614800	1.492288	-0.188815
N99	N	0.114797	0.992296	0.230628
N100	N	0.614797	1.492296	0.730628
H101	H	0.189509	0.535014	0.134634
H102	H	0.689509	1.035014	0.634634
F103	F	-0.052480	0.573976	-0.000144
F104	F	0.447520	1.073976	0.499856
F105	F	-0.434075	0.907048	-0.153692
F106	F	0.065925	1.407048	0.346308
F107	F	0.274717	1.026132	-0.563843
F108	F	0.774717	1.526132	-0.063843
F109	F	0.029659	0.443309	0.153600
F110	F	0.529659	0.943309	0.653600
F111	F	-0.336167	1.077387	-0.153709
F112	F	0.163833	1.577387	0.346291
F113	F	0.240102	0.866404	-0.436394
F114	F	0.740102	1.366404	0.063606
F115	F	-0.336414	1.077412	0.153773
F116	F	0.163586	1.577412	0.653773
F117	F	-0.434150	0.907079	0.153627
F118	F	0.065850	1.407079	0.653627
H119	H	-0.313513	0.845673	0.000025
H120	H	0.186487	1.345673	0.500025
H121	H	-0.456668	1.138946	0.000029
H122	H	0.043332	1.638946	0.500029
F123	F	0.149439	1.151902	-0.436244
F124	F	0.649439	1.651902	0.063756
H125	H	0.261409	0.420581	-0.000133
H126	H	0.761409	0.920581	0.499867
H127	H	0.189551	0.535025	-0.134779
H128	H	0.689551	1.035025	0.365221
H129	H	0.040207	0.449620	-0.134910
H130	H	0.540207	0.949620	0.365090
H131	H	0.084511	0.852263	-0.555826
H132	H	0.584511	1.352263	-0.055826
H133	H	-0.025413	0.962437	-0.444384
H134	H	0.474587	1.462437	0.055616
F135	F	-0.010654	1.118092	-0.563464
F136	F	0.489346	1.618092	-0.063464
