data_functionalizedCrystal
_audit_creation_method	'MofGen! by Chris Wilmer'
_symmetry_space_group_name_H-M	'P1'
_symmetry_Int_Tables_number	1
_symmetry_cell_setting	triclinic
loop_
_symmetry_equiv_pos_as_xyz
  x,y,z
_cell_length_a	10.686220
_cell_length_b	12.827892
_cell_length_c	10.686551
_cell_angle_alpha	94.405267
_cell_angle_beta	89.691918
_cell_angle_gamma	94.396991
loop_
_atom_site_label
_atom_site_type_symbol
_atom_site_fract_x
_atom_site_fract_y
_atom_site_fract_z
Zn1	Zn	1.972285	-0.254771	0.562388
Zn2	Zn	2.472285	0.245229	1.062388
Zn3	Zn	1.956055	-0.443915	0.352631
Zn4	Zn	2.456055	0.056085	0.852631
Zn5	Zn	1.746404	-0.281503	0.368706
Zn6	Zn	2.246404	0.218497	0.868706
Zn7	Zn	1.762485	-0.441797	0.578409
Zn8	Zn	2.262485	0.058203	1.078409
O9	O	1.859307	-0.355497	0.465534
O10	O	2.359307	0.144503	0.965534
O11	O	2.145674	-0.269560	0.521132
O12	O	2.645674	0.230440	1.021132
O13	O	1.914721	-0.434445	0.179218
O14	O	2.414721	0.065555	0.679218
O15	O	1.776430	-0.131715	0.394421
O16	O	2.276430	0.368285	0.894421
O17	O	2.133750	-0.408523	0.367024
O18	O	2.633750	0.091477	0.867024
O19	O	1.942384	-0.112075	0.536718
O20	O	2.442384	0.387925	1.036718
O21	O	1.760692	-0.315121	0.191028
O22	O	2.260692	0.184879	0.691028
O23	O	1.572995	-0.313068	0.409956
O24	O	2.072995	0.186932	0.909956
O25	O	1.803838	-0.404914	0.751829
O26	O	2.303838	0.095086	1.251829
O27	O	1.584810	-0.430835	0.564023
O28	O	2.084810	0.069165	1.064023
O29	O	1.957978	-0.267506	0.740059
O30	O	2.457978	0.232494	1.240059
O31	O	1.930314	-0.589876	0.382559
O32	O	2.430314	-0.089876	0.882559
O33	O	1.788100	-0.588320	0.548436
O34	O	2.288100	-0.088320	1.048436
C35	C	1.533386	-0.374623	0.490473
C36	C	2.033386	0.125377	0.990473
C37	C	1.393958	-0.382829	0.501172
C38	C	1.893958	0.117171	1.001172
C39	C	1.859227	-0.627013	0.465516
C40	C	2.359227	-0.127013	0.965516
C41	C	1.859311	-0.743159	0.465542
C42	C	2.359311	-0.243159	0.965542
C43	C	1.941401	-0.785139	0.536027
C44	C	2.441401	-0.285139	1.036027
C45	C	1.941490	-0.905182	0.536055
C46	C	2.441490	-0.405182	1.036055
C47	C	2.186501	-0.336296	0.440498
C48	C	2.686501	0.163704	0.940498
C49	C	2.325931	-0.328114	0.429829
C50	C	2.825931	0.171886	0.929829
C51	C	1.884512	-0.332992	0.792734
C52	C	2.384512	0.167008	1.292734
C53	C	1.895253	-0.323402	0.932167
C54	C	2.395253	0.176598	1.432167
C55	C	1.859424	-0.082916	0.465576
C56	C	2.359424	0.417084	0.965576
C57	C	1.859474	0.033241	0.465594
C58	C	2.359474	0.533241	0.965594
C59	C	1.834272	-0.377834	0.139601
C60	C	2.334272	0.122166	0.639601
C61	C	1.823775	-0.387115	0.000150
C62	C	2.323775	0.112885	0.500150
H63	H	1.345526	-0.435960	0.570434
H64	H	1.845526	0.064040	1.070434
H65	H	1.374357	-0.274993	0.360563
H66	H	1.874357	0.225007	0.860563
Br67	Br	2.058423	-0.696928	0.636595
Br68	Br	2.558423	-0.196928	1.136595
Br69	Br	2.058647	-0.965408	0.636628
Br70	Br	2.558647	-0.465408	1.136628
Br71	Br	1.742333	-0.906540	0.364995
Br72	Br	2.242333	-0.406540	0.864995
H73	H	1.789090	-0.796089	0.405225
H74	H	2.289090	-0.296089	0.905225
Br75	Br	1.708086	-0.490272	0.919373
Br76	Br	2.208086	0.009728	1.419373
H77	H	1.964675	-0.261517	0.980640
H78	H	2.464675	0.238483	1.480640
