data_functionalizedCrystal
_audit_creation_method	'MofGen! by Chris Wilmer'
_symmetry_space_group_name_H-M	'P1'
_symmetry_Int_Tables_number	1
_symmetry_cell_setting	triclinic
loop_
_symmetry_equiv_pos_as_xyz
  x,y,z
_cell_length_a	21.395362
_cell_length_b	13.897448
_cell_length_c	13.897441
_cell_angle_alpha	89.969401
_cell_angle_beta	89.958721
_cell_angle_gamma	90.033571
loop_
_atom_site_label
_atom_site_type_symbol
_atom_site_fract_x
_atom_site_fract_y
_atom_site_fract_z
Zn1	Zn	0.957900	-0.383575	-0.545910
Zn2	Zn	1.457900	0.116425	-0.045910
Zn3	Zn	0.957831	-0.544897	-0.384612
Zn4	Zn	1.457831	-0.044897	0.115388
Zn5	Zn	0.853120	-0.383662	-0.384571
Zn6	Zn	1.353120	0.116338	0.115429
Zn7	Zn	0.853108	-0.544875	-0.545806
Zn8	Zn	1.353108	-0.044875	-0.045806
O9	O	0.905489	-0.464252	-0.465225
O10	O	1.405489	0.035748	0.034775
O11	O	1.045568	-0.404948	-0.524574
O12	O	1.545568	0.095052	-0.024574
O13	O	0.943917	-0.523555	-0.249624
O14	O	1.443917	-0.023555	0.250376
O15	O	0.867053	-0.248669	-0.405999
O16	O	1.367053	0.251331	0.094001
O17	O	1.045518	-0.523470	-0.406069
O18	O	1.545518	-0.023470	0.093931
O19	O	0.944034	-0.248605	-0.524535
O20	O	1.444034	0.251395	-0.024535
O21	O	0.866986	-0.405096	-0.249594
O22	O	1.366986	0.094904	0.250406
O23	O	0.765440	-0.405075	-0.405898
O24	O	1.265440	0.094925	0.094102
O25	O	0.867032	-0.523432	-0.680802
O26	O	1.367032	-0.023432	-0.180802
O27	O	0.765431	-0.523517	-0.524358
O28	O	1.265431	-0.023517	-0.024358
O29	O	0.944023	-0.404926	-0.680878
O30	O	1.444023	0.095074	-0.180878
O31	O	0.943905	-0.679876	-0.405968
O32	O	1.443905	-0.179876	0.094032
O33	O	0.866966	-0.679859	-0.524397
O34	O	1.366966	-0.179859	-0.024397
C35	C	0.742702	-0.464303	-0.465113
C36	C	1.242702	0.035697	0.034887
C37	C	0.673060	-0.464348	-0.465088
C38	C	1.173060	0.035652	0.034912
C39	C	0.640359	-0.526103	-0.526677
C40	C	1.140359	-0.026103	-0.026677
C41	C	0.574924	-0.526079	-0.526720
C42	C	1.074924	-0.026079	-0.026720
C43	C	0.542192	-0.464311	-0.465157
C44	C	1.042192	0.035689	0.034843
C45	C	0.574901	-0.402545	-0.403563
C46	C	1.074901	0.097455	0.096437
C47	C	0.640335	-0.402563	-0.403529
C48	C	1.140335	0.097437	0.096471
C49	C	0.438469	-0.456563	-0.378319
C50	C	0.938469	0.043437	0.121681
C51	C	0.373036	-0.456551	-0.378352
C52	C	0.873036	0.043449	0.121648
C53	C	0.340372	-0.464248	-0.465263
C54	C	0.840372	0.035752	0.034737
C55	C	0.373148	-0.471977	-0.552144
C56	C	0.873148	0.028023	-0.052144
C57	C	0.438582	-0.471996	-0.552110
C58	C	0.938582	0.028004	-0.052110
C59	C	0.471240	-0.464284	-0.465187
C60	C	0.971240	0.035716	0.034813
C61	C	0.236718	-0.525980	-0.526904
C62	C	0.736718	-0.025980	-0.026904
C63	C	0.171281	-0.525950	-0.526949
C64	C	0.671281	-0.025950	-0.026949
C65	C	0.171260	-0.402420	-0.403783
C66	C	0.671260	0.097580	0.096217
C67	C	0.236695	-0.402446	-0.403747
C68	C	0.736695	0.097554	0.096253
C69	C	0.269420	-0.464231	-0.465306
C70	C	0.769420	0.035769	0.034694
C71	C	0.905444	-0.714867	-0.465197
C72	C	1.405444	-0.214867	0.034803
C73	C	0.905481	-0.822080	-0.465217
C74	C	1.405481	-0.322080	0.034783
C75	C	0.905547	-1.018376	-0.465278
C76	C	1.405547	-0.518376	0.034722
C77	C	0.905509	-0.909143	-0.465247
C78	C	1.405509	-0.409143	0.034753
C79	C	1.068913	-0.464202	-0.465338
C80	C	1.568913	0.035798	0.034662
C81	C	1.138554	-0.464180	-0.465386
C82	C	1.638554	0.035820	0.034614
C83	C	0.905534	-0.464167	-0.716818
C84	C	1.405534	0.035833	-0.216818
C85	C	0.905553	-0.464131	-0.824032
C86	C	1.405553	0.035869	-0.324032
C87	C	0.905552	-0.212659	-0.465274
C88	C	1.405552	0.287341	0.034726
C89	C	0.905579	-0.105445	-0.465295
C90	C	1.405579	0.394555	0.034705
C91	C	0.905570	-0.464065	-1.020327
C92	C	1.405570	0.035935	-0.520327
C93	C	0.905558	-0.464104	-0.911095
C94	C	1.405558	0.035896	-0.411095
C95	C	0.905481	-0.464268	-0.214610
C96	C	1.405481	0.035732	0.285390
C97	C	0.905584	-0.464032	-0.107397
C98	C	1.405584	0.035968	0.392603
H99	H	0.465266	-0.478286	-0.622851
H100	H	0.965266	0.021714	-0.122851
H101	H	0.346554	-0.478243	-0.622916
H102	H	0.846554	0.021757	-0.122916
H103	H	0.666961	-0.352272	-0.353375
H104	H	1.166961	0.147728	0.146625
O105	O	0.139550	-0.342465	-0.343835
O106	O	0.639550	0.157535	0.156165
C107	C	0.155461	-0.363463	-0.247658
C108	C	0.655461	0.136537	0.252342
H109	H	0.202947	-0.400566	-0.245587
H110	H	0.702947	0.099434	0.254413
H111	H	0.157717	-0.293801	-0.204520
H112	H	0.657717	0.206199	0.295480
H113	H	0.118585	-0.412999	-0.215096
H114	H	0.618585	0.087001	0.284904
H115	H	0.548247	-0.352251	-0.353439
H116	H	1.048247	0.147749	0.146561
H117	H	0.667000	-0.576412	-0.576805
H118	H	1.167000	-0.076412	-0.076805
H119	H	0.263321	-0.352163	-0.353589
H120	H	0.763321	0.147837	0.146411
O121	O	0.543246	-0.586157	-0.586586
O122	O	1.043246	-0.086157	-0.086586
C123	C	0.586161	-0.640669	-0.640935
C124	C	1.086161	-0.140669	-0.140935
H125	H	0.632776	-0.643981	-0.601396
H126	H	1.132776	-0.143981	-0.101396
H127	H	0.567220	-0.716672	-0.651104
H128	H	1.067220	-0.216672	-0.151104
H129	H	0.593190	-0.605435	-0.714250
H130	H	1.093190	-0.105435	-0.214250
H131	H	0.263364	-0.576285	-0.577034
H132	H	0.763364	-0.076285	-0.077034
O133	O	0.139610	-0.586034	-0.586809
O134	O	0.639610	-0.086034	-0.086809
C135	C	0.182529	-0.640552	-0.641146
C136	C	0.682529	-0.140552	-0.141146
H137	H	0.229143	-0.643853	-0.601605
H138	H	0.729143	-0.143853	-0.101605
H139	H	0.163591	-0.716559	-0.651303
H140	H	0.663591	-0.216559	-0.151303
H141	H	0.189558	-0.605330	-0.714468
H142	H	0.689558	-0.105330	-0.214468
H143	H	0.346354	-0.450264	-0.307608
H144	H	0.846354	0.049736	0.192392
H145	H	0.465059	-0.450291	-0.307541
H146	H	0.965059	0.049709	0.192459
