data_functionalizedCrystal
_audit_creation_method	'MofGen! by Chris Wilmer'
_symmetry_space_group_name_H-M	'P1'
_symmetry_Int_Tables_number	1
_symmetry_cell_setting	triclinic
loop_
_symmetry_equiv_pos_as_xyz
  x,y,z
_cell_length_a	12.759395
_cell_length_b	16.625545
_cell_length_c	16.625548
_cell_angle_alpha	90.009225
_cell_angle_beta	90.002900
_cell_angle_gamma	90.026319
loop_
_atom_site_label
_atom_site_type_symbol
_atom_site_fract_x
_atom_site_fract_y
_atom_site_fract_z
Zn1	Zn	1.606001	-0.321134	0.455870
Zn2	Zn	1.605914	-0.455933	0.321038
Zn3	Zn	1.430355	-0.321120	0.321055
Zn4	Zn	1.430259	-0.455930	0.455832
O5	O	1.518132	-0.388529	0.388449
O6	O	1.753011	-0.339023	0.437993
O7	O	1.582630	-0.438045	0.208208
O8	O	1.453732	-0.208289	0.338962
O9	O	1.752947	-0.438059	0.338933
O10	O	1.582778	-0.208300	0.438010
O11	O	1.453647	-0.338998	0.208221
O12	O	1.283321	-0.338995	0.338925
O13	O	1.453567	-0.438054	0.568670
O14	O	1.283250	-0.438040	0.437945
O15	O	1.582685	-0.339020	0.568698
O16	O	1.582536	-0.568765	0.338896
O17	O	1.453483	-0.568763	0.437928
C18	C	1.245165	-0.388517	0.388433
C19	C	1.128388	-0.388531	0.388446
C20	C	0.909020	-0.285589	0.491791
C21	C	0.963919	-0.234101	0.543441
C22	C	1.073641	-0.234087	0.543427
C23	C	1.128466	-0.285568	0.491759
C24	C	1.073566	-0.337056	0.440109
C25	C	0.963842	-0.337063	0.440127
C26	C	1.073489	-0.440019	0.336796
C27	C	0.963767	-0.440030	0.336805
C28	C	1.128313	-0.491500	0.285128
C29	C	1.073414	-0.542985	0.233473
C30	C	0.963686	-0.542996	0.233489
C31	C	0.908868	-0.491518	0.285155
C32	C	1.518018	-0.598020	0.388424
C33	C	1.518066	-0.687641	0.388440
C34	C	1.518106	-0.760424	0.388456
C35	C	1.518167	-0.851732	0.388474
C36	C	1.518222	-0.924508	0.388484
C37	C	1.518282	-1.015823	0.388500
C38	C	1.792166	-0.388542	0.388465
C39	C	1.908942	-0.388548	0.388472
C40	C	1.518125	-0.388538	0.598758
C41	C	1.518122	-0.388542	0.688379
C42	C	1.518276	-0.178220	0.388492
C43	C	1.518337	-0.088599	0.388511
C44	C	1.518119	-0.388546	0.761161
C45	C	1.518118	-0.388543	0.852470
C46	C	1.518122	-0.388537	0.925246
C47	C	1.518123	-0.388535	1.016561
C48	C	1.518130	-0.388536	1.178958
C49	C	1.518127	-0.388528	1.089337
H50	H	0.819526	-0.491512	0.285163
N51	N	1.246807	-0.285596	0.491783
H52	H	1.273267	-0.245182	0.532356
H53	H	1.273196	-0.270717	0.436478
H54	H	1.118061	-0.584901	0.191414
N55	N	1.132862	-0.178561	0.599137
H56	H	1.081487	-0.145951	0.631873
H57	H	1.178392	-0.141190	0.566375
N58	N	0.904470	-0.598524	0.177777
H59	H	0.858937	-0.635947	0.210481
H60	H	0.955916	-0.631078	0.145056
H61	H	0.819679	-0.285577	0.491790
H62	H	0.919269	-0.192187	0.585509
H63	H	1.217654	-0.491490	0.285125
