data_functionalizedCrystal
_audit_creation_method	'MofGen! by Chris Wilmer'
_symmetry_space_group_name_H-M	'P1'
_symmetry_Int_Tables_number	1
_symmetry_cell_setting	triclinic
loop_
_symmetry_equiv_pos_as_xyz
  x,y,z
_cell_length_a	11.169417
_cell_length_b	12.645330
_cell_length_c	12.645324
_cell_angle_alpha	89.968341
_cell_angle_beta	89.981559
_cell_angle_gamma	90.018570
loop_
_atom_site_label
_atom_site_type_symbol
_atom_site_fract_x
_atom_site_fract_y
_atom_site_fract_z
Zn1	Zn	1.834885	-0.421935	-0.599346
Zn2	Zn	1.834753	-0.599244	-0.422086
Zn3	Zn	1.634175	-0.421998	-0.422102
Zn4	Zn	1.634152	-0.599160	-0.599313
O5	O	1.734491	-0.510584	-0.510712
O6	O	2.002817	-0.445465	-0.575840
O7	O	1.808101	-0.575794	-0.273741
O8	O	1.660865	-0.273642	-0.445634
O9	O	2.002720	-0.575733	-0.445608
O10	O	1.808325	-0.273596	-0.575855
O11	O	1.660737	-0.445572	-0.273752
O12	O	1.466223	-0.445490	-0.445601
O13	O	1.660825	-0.575589	-0.747664
O14	O	1.466206	-0.575650	-0.575798
O15	O	1.808302	-0.445383	-0.747689
O16	O	1.808078	-0.747580	-0.445575
O17	O	1.660698	-0.747518	-0.575783
C18	C	1.422667	-0.510568	-0.510698
C19	C	1.289267	-0.510587	-0.510717
C20	C	1.734404	-0.786014	-0.510697
C21	C	1.734476	-0.903844	-0.510726
C22	C	1.642141	-1.071413	-0.592892
C23	C	1.641669	-0.948854	-0.592628
C24	C	1.700236	-0.948452	-0.399006
C25	C	1.699672	-1.071050	-0.399505
C26	C	1.861616	-1.070928	-0.539374
C27	C	1.860837	-0.948321	-0.541817
C28	C	2.047534	-0.510601	-0.510726
C29	C	2.180934	-0.510608	-0.510732
C30	C	1.734576	-0.510469	-0.787217
C31	C	1.734612	-0.510421	-0.905047
C32	C	1.734612	-0.234079	-0.510750
C33	C	1.734663	-0.116249	-0.510766
C34	C	1.827411	-0.428490	-0.949945
C35	C	1.827809	-0.428704	-1.072505
C36	C	1.768526	-0.622190	-1.072926
C37	C	1.769165	-0.621744	-0.950328
C38	C	1.607739	-0.481500	-0.950225
C39	C	1.608454	-0.479008	-1.072832
C40	C	1.734476	-0.510622	-0.235282
C41	C	1.734673	-0.510372	-0.117452
H42	H	1.663092	-0.918690	-0.675468
F43	F	1.888421	-0.654702	-1.113064
F44	F	1.800086	-0.319805	-0.911452
F45	F	1.518650	-0.910641	-0.567860
H46	H	1.933401	-0.917676	-0.486356
H47	H	1.920888	-0.447430	-0.919145
H48	H	1.921838	-0.447863	-1.101841
F49	F	1.575068	-0.371451	-1.110875
H50	H	1.764137	-1.100714	-0.336228
H51	H	1.861895	-0.646205	-0.921739
H52	H	1.663367	-1.100815	-0.676004
F53	F	1.951719	-1.108842	-0.461204
F54	F	1.578372	-1.108560	-0.367827
F55	F	1.785523	-0.910351	-0.316837
F56	F	1.580197	-0.908452	-0.366754
F57	F	1.902443	-1.111229	-0.644046
F58	F	1.682914	-0.704145	-1.110975
F59	F	1.799842	-0.320415	-1.111861
H60	H	1.704463	-0.684867	-0.920624
F61	F	1.567321	-0.376753	-0.909835
H62	H	1.886659	-0.919160	-0.624037
F63	F	1.519895	-1.111825	-0.568455
H64	H	1.535667	-0.534287	-1.103425
F65	F	1.517370	-0.559479	-0.912254
