data_functionalizedCrystal
_audit_creation_method	'MofGen! by Chris Wilmer'
_symmetry_space_group_name_H-M	'P1'
_symmetry_Int_Tables_number	1
_symmetry_cell_setting	triclinic
loop_
_symmetry_equiv_pos_as_xyz
  x,y,z
_cell_length_a	15.500369
_cell_length_b	16.109301
_cell_length_c	16.109301
_cell_angle_alpha	83.461481
_cell_angle_beta	87.162514
_cell_angle_gamma	92.829776
loop_
_atom_site_label
_atom_site_type_symbol
_atom_site_fract_x
_atom_site_fract_y
_atom_site_fract_z
O1	O	0.071891	-1.099276	-0.110723
O2	O	0.071905	-0.857213	-0.124023
O3	O	0.071889	-0.984894	0.003658
O4	O	0.071907	-0.971594	-0.238405
O5	O	-0.071997	-0.992601	0.011380
O6	O	-0.071981	-0.864920	-0.116302
O7	O	-0.071995	-1.106983	-0.103002
Cu8	Cu	-0.085126	-0.986655	-0.108947
Cu9	Cu	0.085036	-0.977541	-0.118078
O10	O	-0.071979	-0.979301	-0.230683
C11	C	-0.000036	-0.830091	-0.119624
C12	C	-0.000031	-0.737796	-0.118009
C13	C	-0.000055	-0.988209	0.038494
C14	C	-0.000056	-0.986594	0.130789
N15	N	-0.204809	-0.993072	-0.102523
C16	C	-0.749988	-1.025243	-0.070413
C17	C	-0.659417	-1.020371	-0.075281
C18	C	-0.614139	-0.961382	-0.134227
C19	C	-0.659438	-0.907267	-0.188315
C20	C	-0.750008	-0.912143	-0.183450
C21	C	-0.340678	-0.943833	-0.151746
C22	C	-0.250101	-0.938959	-0.156605
C23	C	-0.250087	-1.052065	-0.043572
C24	C	-0.340658	-1.056933	-0.038709
C25	C	-0.385949	-1.002821	-0.092799
C26	C	-0.521561	-0.956399	-0.139203
C27	C	-0.478526	-1.007808	-0.087827
N28	N	0.204719	-0.971130	-0.124495
C29	C	-0.000052	-1.134104	-0.107401
C30	C	-0.000051	-1.226399	-0.109016
C31	C	-0.000036	-0.515524	-0.190016
C32	C	-0.000041	-0.428804	-0.188492
C33	C	-0.000049	-0.448678	-0.037003
C34	C	-0.000050	-0.535397	-0.038528
C35	C	-0.000039	-0.568817	-0.115037
C36	C	-0.000044	-0.395378	-0.111988
C37	C	-0.000050	-0.301352	-0.110335
C38	C	-0.000034	-0.662849	-0.116691
C39	C	-0.000033	-0.975986	-0.265519
C40	C	-0.000027	-0.977601	-0.357815
C41	C	-0.000046	-1.058601	0.353061
C42	C	-0.000039	-1.057077	0.439781
C43	C	-0.000034	-0.905588	0.419907
C44	C	-0.000035	-0.907113	0.333188
C45	C	-0.000045	-0.983622	0.299768
C46	C	-0.000037	-0.980573	0.473207
C47	C	-0.000029	-0.978919	0.567232
C48	C	-0.000051	-0.985276	0.205736
H49	H	-0.786847	-1.073275	-0.022409
H50	H	-0.213203	-1.096121	0.000465
H51	H	-0.000027	-0.843297	0.447128
H52	H	-0.000031	-0.846052	0.289794
H53	H	-0.000055	-0.578791	0.022533
Br54	Br	-0.000023	-0.560877	-0.293850
H55	H	-0.000038	-1.118132	0.483170
H56	H	-0.622540	-1.064435	-0.031244
H57	H	-0.000053	-1.120900	0.325854
H58	H	-0.213241	-0.890919	-0.204609
Br59	Br	-0.402108	-1.136987	0.041293
Br60	Br	-0.000061	-0.403317	0.066826
Br61	Br	-0.402139	-0.870396	-0.225151
H62	H	-0.786884	-0.868080	-0.227491
Br63	Br	-0.539974	-1.087868	-0.007835
Br64	Br	-0.597993	-0.827214	-0.268322
H65	H	-0.484689	-0.908367	-0.187197
Br66	Br	-0.000042	-0.356479	-0.290254
