data_functionalizedCrystal
_audit_creation_method	'MofGen! by Chris Wilmer'
_symmetry_space_group_name_H-M	'P1'
_symmetry_Int_Tables_number	1
_symmetry_cell_setting	triclinic
loop_
_symmetry_equiv_pos_as_xyz
  x,y,z
_cell_length_a	16.959455
_cell_length_b	16.959454
_cell_length_c	21.395356
_cell_angle_alpha	90.021211
_cell_angle_beta	89.971488
_cell_angle_gamma	89.980044
loop_
_atom_site_label
_atom_site_type_symbol
_atom_site_fract_x
_atom_site_fract_y
_atom_site_fract_z
Zn1	Zn	1.208432	0.314764	-0.354372
Zn2	Zn	1.541765	0.648098	-0.021039
Zn3	Zn	1.875098	0.981431	0.312295
Zn4	Zn	1.208329	0.446946	-0.249606
Zn5	Zn	1.541662	0.780280	0.083727
Zn6	Zn	1.874995	1.113613	0.417060
Zn7	Zn	1.076241	0.314779	-0.249600
Zn8	Zn	1.409575	0.648112	0.083734
Zn9	Zn	1.742908	0.981445	0.417067
Zn10	Zn	1.076218	0.446898	-0.354337
Zn11	Zn	1.409551	0.780231	-0.021004
Zn12	Zn	1.742885	1.113565	0.312329
O13	O	1.142305	0.380847	-0.301979
O14	O	1.475638	0.714180	0.031355
O15	O	1.808972	1.047513	0.364688
O16	O	1.319029	0.332313	-0.340492
O17	O	1.652362	0.665646	-0.007158
O18	O	1.985695	0.998979	0.326175
O19	O	1.190774	0.429440	-0.161927
O20	O	1.524107	0.762774	0.171406
O21	O	1.857440	1.096107	0.504739
O22	O	1.093829	0.204166	-0.263509
O23	O	1.427163	0.537499	0.069824
O24	O	1.760496	0.870833	0.403157
O25	O	1.318953	0.429426	-0.263521
O26	O	1.652287	0.762760	0.069813
O27	O	1.985620	1.096093	0.403146
O28	O	1.190949	0.204155	-0.340485
O29	O	1.524282	0.537489	-0.007152
O30	O	1.857616	0.870822	0.326181
O31	O	1.093730	0.332337	-0.161923
O32	O	1.427063	0.665671	0.171411
O33	O	1.760396	0.999004	0.504744
O34	O	0.965627	0.332290	-0.263476
O35	O	1.298961	0.665624	0.069857
O36	O	1.632294	0.998957	0.403191
O37	O	1.093790	0.429344	-0.442020
O38	O	1.427123	0.762677	-0.108687
O39	O	1.760457	1.096010	0.224647
O40	O	0.965610	0.429358	-0.340427
O41	O	1.298944	0.762691	-0.007093
O42	O	1.632277	1.096024	0.326240
O43	O	1.190927	0.332266	-0.442045
O44	O	1.524260	0.665599	-0.108712
O45	O	1.857593	0.998933	0.224621
O46	O	1.190751	0.557551	-0.263487
O47	O	1.524085	0.890884	0.069846
O48	O	1.857418	1.224217	0.403179
O49	O	1.093690	0.557515	-0.340433
O50	O	1.427023	0.890849	-0.007100
O51	O	1.760357	1.224182	0.326234
C52	C	0.936939	0.380821	-0.301947
C53	C	1.270272	0.714154	0.031386
C54	C	1.603605	1.047488	0.364719
C55	C	0.849082	0.380829	-0.301949
C56	C	1.182415	0.714162	0.031385
C57	C	1.515749	1.047496	0.364718
C58	C	0.477556	0.431364	-0.261880
C59	C	0.810890	0.764697	0.071454
C60	C	1.144223	1.098030	0.404787
C61	C	0.477657	0.330396	-0.342154
C62	C	0.810990	0.663729	-0.008821
C63	C	1.144323	0.997062	0.324512
C64	C	0.560202	0.330383	-0.342139
C65	C	0.893536	0.663716	-0.008806
C66	C	1.226869	0.997049	0.324528
C67	C	0.601429	0.380862	-0.301994
C68	C	0.934762	0.714195	0.031339
C69	C	1.268096	1.047528	0.364673
C70	C	0.560110	0.431354	-0.261864
C71	C	0.893443	0.764687	0.071469
C72	C	1.226777	1.098021	0.404802
C73	C	0.601528	0.279897	-0.382272
C74	C	0.934861	0.613230	-0.048939
C75	C	1.268194	0.946564	0.284394
C76	C	0.684079	0.279883	-0.382259
C77	C	1.017412	0.613216	-0.048926
C78	C	1.350745	0.946549	0.284407
C79	C	0.725307	0.330358	-0.342111
C80	C	1.058640	0.663692	-0.008777
C81	C	1.391974	0.997025	0.324556
C82	C	0.683983	0.380852	-0.301979
C83	C	1.017316	0.714185	0.031354
C84	C	1.350649	1.047519	0.364688
C85	C	0.725209	0.431331	-0.261834
C86	C	1.058543	0.764664	0.071499
C87	C	1.391876	1.097998	0.404833
C88	C	0.683887	0.481821	-0.221699
C89	C	1.017220	0.815155	0.111635
C90	C	1.350553	1.148488	0.444968
C91	C	0.601338	0.481830	-0.221716
C92	C	0.934672	0.815163	0.111617
C93	C	1.268005	1.148496	0.444951
C94	C	0.807855	0.330350	-0.342093
C95	C	1.141189	0.663683	-0.008760
C96	C	1.474522	0.997017	0.324573
C97	C	0.807763	0.431321	-0.261819
C98	C	1.141096	0.764655	0.071514
C99	C	1.474430	1.097988	0.404848
C100	C	1.142228	0.586213	-0.301971
C101	C	1.475562	0.919546	0.031363
C102	C	1.808895	1.252880	0.364696
C103	C	1.142268	0.674070	-0.301988
C104	C	1.475601	1.007403	0.031345
C105	C	1.808935	1.340736	0.364678
C106	C	1.091805	1.045557	-0.342049
C107	C	1.425139	1.378890	-0.008715
C108	C	1.758472	1.712223	0.324618
C109	C	1.192958	1.045534	-0.261990
C110	C	1.526292	1.378867	0.071343
C111	C	1.859625	1.712200	0.404677
C112	C	1.192935	0.962988	-0.261983
C113	C	1.526268	1.296321	0.071350
C114	C	1.859601	1.629655	0.404683
C115	C	1.142345	0.921723	-0.302009
C116	C	1.475678	1.255056	0.031324
C117	C	1.809012	1.588389	0.364658
C118	C	1.091779	0.963003	-0.342042
C119	C	1.425112	1.296337	-0.008709
C120	C	1.758445	1.629670	0.324625
C121	C	1.243495	0.921701	-0.221947
C122	C	1.576828	1.255035	0.111387
C123	C	1.910161	1.588368	0.444720
C124	C	1.243472	0.839150	-0.221938
C125	C	1.576806	1.172484	0.111396
C126	C	1.910139	1.505817	0.444729
C127	C	1.192886	0.797883	-0.261967
C128	C	1.526219	1.131217	0.071366
C129	C	1.859553	1.464550	0.404699
C130	C	1.142318	0.839169	-0.302002
C131	C	1.475652	1.172502	0.031331
C132	C	1.808985	1.505836	0.364664
C133	C	1.091728	0.797904	-0.342028
C134	C	1.425062	1.131237	-0.008695
C135	C	1.758395	1.464570	0.324639
C136	C	1.041164	0.839188	-0.382067
C137	C	1.374497	1.172521	-0.048733
C138	C	1.707831	1.505855	0.284600
C139	C	1.041192	0.921736	-0.382071
C140	C	1.374526	1.255070	-0.048738
C141	C	1.707859	1.588403	0.284595
C142	C	1.192858	0.715335	-0.261962
C143	C	1.526191	1.048668	0.071371
C144	C	1.859525	1.382002	0.404704
C145	C	1.091702	0.715350	-0.342021
C146	C	1.425035	1.048684	-0.008688
C147	C	1.758368	1.382017	0.324646
C148	C	1.348473	0.380873	-0.302011
C149	C	1.681806	0.714207	0.031323
C150	C	2.015140	1.047540	0.364656
C151	C	1.436330	0.380885	-0.302024
C152	C	1.769663	0.714218	0.031309
C153	C	2.102996	1.047551	0.364642
C154	C	1.142367	0.380798	-0.465402
C155	C	1.475700	0.714131	-0.132069
C156	C	1.809034	1.047465	0.201265
C157	C	1.142394	0.380777	-0.535043
C158	C	1.475727	0.714110	-0.201710
C159	C	1.809060	1.047444	0.131623
C160	C	1.142391	1.174679	-0.302004
C161	C	1.475724	1.508012	0.031330
C162	C	1.809057	1.841345	0.364663
C163	C	1.142395	1.086822	-0.302023
C164	C	1.475729	1.420155	0.031310
C165	C	1.809062	1.753489	0.364644
C166	C	1.091876	0.330210	-0.567744
C167	C	1.425210	0.663543	-0.234411
C168	C	1.758543	0.996876	0.098923
C169	C	1.091874	0.330195	-0.633180
C170	C	1.425207	0.663529	-0.299846
C171	C	1.758540	0.996862	0.033487
C172	C	1.142402	0.380739	-0.665912
C173	C	1.475736	0.714073	-0.332578
C174	C	1.809069	1.047406	0.000755
C175	C	1.192923	0.431316	-0.633203
C176	C	1.526257	0.764650	-0.299870
C177	C	1.859590	1.097983	0.033464
C178	C	1.192919	0.431335	-0.567769
C179	C	1.526252	0.764668	-0.234436
C180	C	1.859586	1.098002	0.098898
C181	C	1.213621	0.386957	-0.769603
C182	C	1.546954	0.720291	-0.436270
C183	C	1.880287	1.053624	-0.102937
C184	C	1.213626	0.386933	-0.835036
C185	C	1.546960	0.720266	-0.501703
C186	C	1.880293	1.053600	-0.168370
C187	C	1.142415	0.380686	-0.867733
C188	C	1.475749	0.714019	-0.534399
C189	C	1.809082	1.047353	-0.201066
C190	C	1.071196	0.374447	-0.834988
C191	C	1.404530	0.707780	-0.501654
C192	C	1.737863	1.041113	-0.168321
C193	C	1.071192	0.374465	-0.769554
C194	C	1.404525	0.707799	-0.436220
C195	C	1.737859	1.041132	-0.102887
C196	C	1.142412	0.380725	-0.736864
C197	C	1.475746	0.714058	-0.403531
C198	C	1.809079	1.047392	-0.070198
C199	C	1.091891	0.330100	-0.971386
C200	C	1.425224	0.663434	-0.638053
C201	C	1.758557	0.996767	-0.304719
C202	C	1.091887	0.330091	-1.036823
C203	C	1.425220	0.663425	-0.703489
C204	C	1.758553	0.996758	-0.370156
C205	C	1.192944	0.431208	-1.036845
C206	C	1.526277	0.764542	-0.703512
C207	C	1.859610	1.097875	-0.370178
C208	C	1.192940	0.431221	-0.971410
C209	C	1.526274	0.764555	-0.638076
C210	C	1.859607	1.097888	-0.304743
C211	C	1.142415	0.380663	-0.938684
C212	C	1.475749	0.713997	-0.605351
C213	C	1.809082	1.047330	-0.272017
C214	C	1.142288	0.380839	-0.139191
C215	C	1.475622	0.714172	0.194142
C216	C	1.808955	1.047505	0.527475
C217	C	1.142415	0.380637	-0.069550
C218	C	1.475748	0.713970	0.263783
C219	C	1.809082	1.047303	0.597116
H220	H	1.050508	0.681757	-0.374618
H221	H	1.383841	1.015090	-0.041284
H222	H	1.717175	1.348424	0.292049
C223	C	1.291963	0.393794	-0.871050
C224	C	1.625296	0.727127	-0.537717
C225	C	1.958629	1.060461	-0.204383
H226	H	1.334371	0.397531	-0.842207
H227	H	1.667705	0.730865	-0.508874
H228	H	2.001038	1.064198	-0.175540
H229	H	1.298939	0.348488	-0.896582
H230	H	1.632272	0.681821	-0.563249
H231	H	1.965605	1.015154	-0.229916
H232	H	1.290911	0.439609	-0.896571
H233	H	1.624244	0.772942	-0.563237
H234	H	1.957577	1.106276	-0.229904
C235	C	1.248468	0.669922	-0.217926
C236	C	1.581802	1.003256	0.115407
C237	C	1.915135	1.336589	0.448740
H238	H	1.241205	0.614849	-0.223652
H239	H	1.574539	0.948182	0.109681
H240	H	1.907872	1.281516	0.443014
H241	H	1.301576	0.683411	-0.227134
H242	H	1.634909	1.016744	0.106199
H243	H	1.968243	1.350078	0.439532
H244	H	1.236921	0.683482	-0.175819
H245	H	1.570254	1.016816	0.157514
H246	H	1.903588	1.350149	0.490848
H247	H	0.841324	0.472425	-0.229126
H248	H	1.174657	0.805759	0.104208
H249	H	1.507991	1.139092	0.437541
H250	H	0.567955	0.238805	-0.414960
H251	H	0.901288	0.572138	-0.081627
H252	H	1.234621	0.905471	0.251707
H253	H	0.443908	0.472469	-0.229201
H254	H	0.777241	0.805803	0.104133
H255	H	1.110575	1.139136	0.437466
H256	H	1.013203	0.369387	-0.742895
H257	H	1.346537	0.702720	-0.409562
H258	H	1.679870	1.036053	-0.076229
C259	C	1.248523	0.486811	-1.072839
C260	C	1.581856	0.820144	-0.739506
C261	C	1.915189	1.153477	-0.406173
H262	H	1.278607	0.516933	-1.043989
H263	H	1.611941	0.850266	-0.710656
H264	H	1.945274	1.183599	-0.377323
H265	H	1.282979	0.456576	-1.098384
H266	H	1.616312	0.789909	-0.765051
H267	H	1.949646	1.123242	-0.431717
H268	H	1.218263	0.521243	-1.098347
H269	H	1.551597	0.854576	-0.765014
H270	H	1.884930	1.187909	-0.431681
H271	H	1.000025	0.955357	-0.414668
H272	H	1.333358	1.288691	-0.081334
H273	H	1.666691	1.622024	0.251999
H274	H	1.271614	0.392038	-0.742988
H275	H	1.604947	0.725371	-0.409654
H276	H	1.938281	1.058705	-0.076321
C277	C	1.299136	0.967089	-0.177919
C278	C	1.632469	1.300422	0.155414
C279	C	1.965802	1.633755	0.488748
H280	H	1.329239	0.930681	-0.154069
H281	H	1.662572	1.264014	0.179265
H282	H	1.995906	1.597347	0.512598
H283	H	1.333572	0.999253	-0.201916
H284	H	1.666905	1.332587	0.131418
H285	H	2.000239	1.665920	0.464751
H286	H	1.268919	0.999328	-0.150599
H287	H	1.602252	1.332661	0.182734
H288	H	1.935585	1.665994	0.516068
H289	H	0.717717	0.238770	-0.414940
H290	H	1.051050	0.572103	-0.081606
H291	H	1.384383	0.905437	0.251727
H292	H	0.841497	0.289243	-0.374772
H293	H	1.174830	0.622576	-0.041439
H294	H	1.508163	0.955910	0.291894
H295	H	0.567686	0.522936	-0.189040
H296	H	0.901019	0.856269	0.144294
H297	H	1.234353	1.189602	0.477627
C298	C	0.729241	0.537345	-0.177542
C299	C	1.062575	0.870678	0.155791
C300	C	1.395908	1.204011	0.489125
H301	H	0.784322	0.530102	-0.183283
H302	H	1.117655	0.863436	0.150051
H303	H	1.450988	1.196769	0.483384
H304	H	0.715710	0.590471	-0.186638
H305	H	1.049043	0.923805	0.146695
H306	H	1.382376	1.257138	0.480028
H307	H	0.715684	0.525701	-0.135459
H308	H	1.049017	0.859034	0.197874
H309	H	1.382351	1.192368	0.531208
C310	C	0.432310	0.274872	-0.386309
C311	C	0.765643	0.608206	-0.052975
C312	C	1.098976	0.941539	0.280358
H313	H	0.377228	0.282107	-0.380568
H314	H	0.710562	0.615440	-0.047234
H315	H	1.043895	0.948774	0.286099
H316	H	0.445874	0.286503	-0.428389
H317	H	0.779208	0.619836	-0.095056
H318	H	1.112541	0.953169	0.238278
H319	H	0.445840	0.221744	-0.377200
H320	H	0.779173	0.555078	-0.043867
H321	H	1.112506	0.888411	0.289467
H322	H	1.284645	0.805542	-0.189337
H323	H	1.617978	1.138875	0.143996
H324	H	1.951312	1.472208	0.477329
H325	H	1.050639	1.079174	-0.374649
H326	H	1.383973	1.412507	-0.041316
H327	H	1.717306	1.745841	0.292018
C328	C	0.992858	0.367575	-0.870941
C329	C	1.326191	0.700908	-0.537608
C330	C	1.659525	1.034241	-0.204275
H331	H	0.950446	0.363856	-0.842069
H332	H	1.283779	0.697190	-0.508735
H333	H	1.617113	1.030523	-0.175402
H334	H	0.985887	0.412867	-0.896458
H335	H	1.319221	0.746200	-0.563125
H336	H	1.652554	1.079534	-0.229792
H337	H	0.993909	0.321745	-0.896474
H338	H	1.327243	0.655078	-0.563140
H339	H	1.660576	0.988412	-0.229807
H340	H	0.999970	0.805580	-0.414653
H341	H	1.333303	1.138914	-0.081320
H342	H	1.666636	1.472247	0.252014
C343	C	1.248514	0.486839	-0.935434
C344	C	1.581847	0.820173	-0.602101
C345	C	1.915181	1.153506	-0.268767
H346	H	1.241270	0.479616	-0.891776
H347	H	1.574604	0.812950	-0.558443
H348	H	1.907937	1.146283	-0.225110
H349	H	1.301629	0.475278	-0.946177
H350	H	1.634963	0.808612	-0.612844
H351	H	1.968296	1.141945	-0.279510
H352	H	1.236914	0.539946	-0.946148
H353	H	1.570247	0.873279	-0.612815
H354	H	1.903581	1.206612	-0.279481
C355	C	1.248606	1.090923	-0.217969
C356	C	1.581940	1.424256	0.115364
C357	C	1.915273	1.757590	0.448698
H358	H	1.241384	1.145999	-0.223710
H359	H	1.574717	1.479332	0.109623
H360	H	1.908051	1.812665	0.442957
H361	H	1.237070	1.077429	-0.175859
H362	H	1.570404	1.410762	0.157474
H363	H	1.903737	1.744096	0.490807
H364	H	1.301706	1.077354	-0.227190
H365	H	1.635040	1.410687	0.106143
H366	H	1.968373	1.744020	0.439477
H367	H	1.050732	0.289044	-0.541103
H368	H	1.384065	0.622378	-0.207770
H369	H	1.717398	0.955711	0.125564
H370	H	1.050738	0.289013	-0.659810
H371	H	1.384071	0.622347	-0.326476
H372	H	1.717404	0.955680	0.006857
H373	H	1.050750	0.288933	-0.944739
H374	H	1.384083	0.622267	-0.611406
H375	H	1.717416	0.955600	-0.278073
C376	C	1.036316	0.274464	-1.072794
C377	C	1.369649	0.607797	-0.739460
C378	C	1.702982	0.941130	-0.406127
H379	H	1.006232	0.244353	-1.043929
H380	H	1.339565	0.577686	-0.710596
H381	H	1.672899	0.911019	-0.377263
H382	H	1.001858	0.304684	-1.098303
H383	H	1.335192	0.638017	-0.764970
H384	H	1.668525	0.971350	-0.431637
H385	H	1.066579	0.240022	-1.098334
H386	H	1.399912	0.573355	-0.765001
H387	H	1.733246	0.906688	-0.431668
C388	C	1.248506	0.486911	-0.669206
C389	C	1.581839	0.820244	-0.335872
C390	C	1.915173	1.153577	-0.002539
H391	H	1.241280	0.479651	-0.712860
H392	H	1.574613	0.812985	-0.379527
H393	H	1.907947	1.146318	-0.046193
H394	H	1.236914	0.540022	-0.658474
H395	H	1.570247	0.873355	-0.325141
H396	H	1.903580	1.206688	0.008192
H397	H	1.301622	0.475347	-0.658500
H398	H	1.634955	0.808680	-0.325167
H399	H	1.968288	1.142014	0.008167
H400	H	1.234060	0.472512	-0.541144
H401	H	1.567393	0.805846	-0.207811
H402	H	1.900726	1.139179	0.125522
