data_functionalizedCrystal
_audit_creation_method	'MofGen! by Chris Wilmer'
_symmetry_space_group_name_H-M	'P1'
_symmetry_Int_Tables_number	1
_symmetry_cell_setting	triclinic
loop_
_symmetry_equiv_pos_as_xyz
  x,y,z
_cell_length_a	8.559649
_cell_length_b	8.597314
_cell_length_c	7.088929
_cell_angle_alpha	76.046591
_cell_angle_beta	84.655815
_cell_angle_gamma	102.374712
loop_
_atom_site_label
_atom_site_type_symbol
_atom_site_fract_x
_atom_site_fract_y
_atom_site_fract_z
O1	O	0.219497	-2.074456	0.182687
O2	O	0.245582	-1.606577	0.105624
O3	O	-0.000120	-1.881737	0.150947
O4	O	0.465199	-1.799296	0.137364
O5	O	-0.033030	-1.918518	0.474980
O6	O	0.212672	-1.643359	0.429658
O7	O	0.186587	-2.111237	0.506721
Cu8	Cu	0.196625	-1.880656	0.497776
Cu9	Cu	0.235544	-1.837158	0.114569
O10	O	0.432289	-1.836077	0.461398
C11	C	0.228158	-1.565624	0.257866
C12	C	0.225252	-1.388799	0.228742
C13	C	-0.076113	-1.906375	0.313989
C14	C	-0.253518	-1.924970	0.317041
C15	C	0.508283	-1.811439	0.298351
C16	C	0.685689	-1.792842	0.295286
N17	N	0.169250	-1.911262	0.767305
C18	C	0.204009	-1.152191	0.354482
C19	C	0.206911	-1.329018	0.383616
N20	N	0.262907	-1.806566	-0.154958
H21	H	0.193419	-1.413116	0.538499
H22	H	0.072199	-2.019784	0.866836
H23	H	0.238733	-1.304695	0.073849
H24	H	0.359962	-1.698061	0.745523
H25	H	-0.337203	-2.052330	0.338033
H26	H	-0.230638	-1.665493	0.274317
