data_functionalizedCrystal
_audit_creation_method	'MofGen! by Chris Wilmer'
_symmetry_space_group_name_H-M	'P1'
_symmetry_Int_Tables_number	1
_symmetry_cell_setting	triclinic
loop_
_symmetry_equiv_pos_as_xyz
  x,y,z
_cell_length_a	18.050590
_cell_length_b	14.908178
_cell_length_c	14.908694
_cell_angle_alpha	90.159098
_cell_angle_beta	86.699464
_cell_angle_gamma	93.303973
loop_
_atom_site_label
_atom_site_type_symbol
_atom_site_fract_x
_atom_site_fract_y
_atom_site_fract_z
Zn1	Zn	1.140114	-0.387556	-0.487337
Zn2	Zn	1.125753	-0.529264	-0.328301
Zn3	Zn	1.009197	-0.378889	-0.337038
Zn4	Zn	1.008352	-0.537854	-0.478654
O5	O	1.070854	-0.458391	-0.407832
O6	O	1.242131	-0.406386	-0.466218
O7	O	1.104635	-0.502094	-0.203636
O8	O	1.032928	-0.254206	-0.364266
O9	O	1.231580	-0.510498	-0.349375
O10	O	1.129112	-0.260574	-0.474690
O11	O	1.019002	-0.391614	-0.210055
O12	O	0.905163	-0.399943	-0.355846
O13	O	1.031487	-0.525139	-0.605629
O14	O	0.904542	-0.516735	-0.459890
O15	O	1.128292	-0.414716	-0.612009
O16	O	1.103816	-0.656236	-0.340955
O17	O	1.017561	-0.662547	-0.451418
C18	C	0.877907	-0.458331	-0.407875
C19	C	0.795363	-0.458329	-0.407913
C20	C	1.059059	-0.692020	-0.394316
C21	C	1.054083	-0.791969	-0.388563
C22	C	1.144822	-0.986272	-0.492862
C23	C	1.140149	-1.080184	-0.487460
C24	C	1.040061	-1.073705	-0.372363
C25	C	1.044734	-0.979794	-0.377765
C26	C	1.097117	-0.936081	-0.438016
C27	C	1.101793	-0.842167	-0.443412
C28	C	1.001702	-0.835691	-0.328320
C29	C	0.997029	-0.929602	-0.322918
C30	C	0.595581	-0.522004	-0.464340
C31	C	0.551287	-0.441287	-0.491197
C32	C	0.644228	-0.458377	-0.407866
C33	C	0.541438	-0.539141	-0.381004
C34	C	0.498238	-0.458430	-0.407822
C35	C	0.601025	-0.377619	-0.434769
C36	C	0.591176	-0.475525	-0.324535
C37	C	0.546906	-0.394750	-0.351365
C38	C	0.728329	-0.458347	-0.407893
C39	C	0.414140	-0.458450	-0.407795
C40	C	1.264555	-0.458451	-0.407790
C41	C	1.347098	-0.458476	-0.407772
C42	C	1.081397	-0.471853	-0.642356
C43	C	1.085890	-0.477589	-0.742296
C44	C	1.082716	-0.223850	-0.421421
C45	C	1.087771	-0.123903	-0.427212
C46	C	1.005145	-0.373329	-0.936780
C47	C	1.009364	-0.378716	-1.030683
C48	C	1.098542	-0.493755	-1.024006
C49	C	1.094323	-0.488368	-0.930103
C50	C	1.047624	-0.428152	-0.886494
C51	C	1.043409	-0.422761	-0.792589
C52	C	1.132583	-0.537803	-0.785914
C53	C	1.136802	-0.543191	-0.879817
C54	C	1.060398	-0.444916	-0.174224
C55	C	1.056062	-0.438926	-0.074299
H56	H	1.144448	-0.806577	-0.492469
H57	H	0.967128	-0.324291	-0.901273
H58	H	1.136552	-0.542792	-1.059529
H59	H	0.974773	-0.334074	-1.071623
H60	H	0.954378	-0.965206	-0.273866
H61	H	1.187479	-0.950680	-0.541914
Cl62	Cl	0.984704	-0.347060	-0.737767
Cl63	Cl	1.195504	-0.618889	-0.934649
Cl64	Cl	1.185990	-0.606726	-0.722692
H65	H	1.178991	-1.121047	-0.532127
H66	H	0.997410	-1.109313	-0.323314
H67	H	0.962859	-0.794814	-0.283658
H68	H	0.616973	-0.575725	-0.512159
H69	H	0.626943	-0.309324	-0.457549
Cl70	Cl	0.523992	-0.418916	-0.599970
Cl71	Cl	0.514100	-0.311624	-0.277606
Cl72	Cl	0.501288	-0.644556	-0.345954
Cl73	Cl	0.618471	-0.497916	-0.215772
