data_functionalizedCrystal
_audit_creation_method	'MofGen! by Chris Wilmer'
_symmetry_space_group_name_H-M	'P1'
_symmetry_Int_Tables_number	1
_symmetry_cell_setting	triclinic
loop_
_symmetry_equiv_pos_as_xyz
  x,y,z
_cell_length_a	15.297327
_cell_length_b	15.298206
_cell_length_c	15.299447
_cell_angle_alpha	88.376278
_cell_angle_beta	91.592977
_cell_angle_gamma	88.422996
loop_
_atom_site_label
_atom_site_type_symbol
_atom_site_fract_x
_atom_site_fract_y
_atom_site_fract_z
Zn1	Zn	-0.529115	1.351010	-0.367373
Zn2	Zn	-0.691500	1.302980	-0.252921
Zn3	Zn	-0.520884	1.180353	-0.244690
Zn4	Zn	-0.643569	1.188614	-0.415281
O5	O	-0.596267	1.255739	-0.320066
O6	O	-0.574161	1.463921	-0.335586
O7	O	-0.685482	1.263155	-0.132538
O8	O	-0.402673	1.219634	-0.237469
O9	O	-0.693464	1.428634	-0.251499
O10	O	-0.408721	1.345015	-0.327604
O11	O	-0.560131	1.173062	-0.126490
O12	O	-0.513654	1.062166	-0.283924
O13	O	-0.611772	1.233714	-0.528217
O14	O	-0.603790	1.068235	-0.409256
O15	O	-0.527684	1.353025	-0.493020
O16	O	-0.804445	1.271166	-0.297953
O17	O	-0.769230	1.187142	-0.417238
C18	C	-0.552628	1.034272	-0.350896
C19	C	-0.533977	0.939528	-0.364109
C20	C	-0.817773	1.224865	-0.363703
C21	C	-0.912546	1.211740	-0.382388
C22	C	-0.463171	0.913402	-0.414203
C23	C	-0.445639	0.824388	-0.426618
C24	C	-0.498915	0.761490	-0.388947
C25	C	-0.569725	0.787616	-0.338858
C26	C	-0.587255	0.876639	-0.326435
C27	C	-0.622998	0.724728	-0.301180
C28	C	-0.693808	0.750854	-0.251090
C29	C	-0.711335	0.839868	-0.238671
C30	C	-0.658060	0.902766	-0.276342
C31	C	-0.605468	0.635705	-0.313602
C32	C	-0.729552	0.598942	-0.225835
C33	C	-0.747084	0.687956	-0.213419
C34	C	-1.252924	1.349950	-0.186759
C35	C	-1.163881	1.362280	-0.169199
C36	C	-1.101043	1.324647	-0.222495
C37	C	-1.127256	1.274681	-0.293354
C38	C	-1.216308	1.262344	-0.310912
C39	C	-1.064427	1.237040	-0.346648
C40	C	-1.090641	1.187074	-0.417507
C41	C	-1.179684	1.174740	-0.435062
C42	C	-1.242522	1.212374	-0.381766
C43	C	-0.975375	1.249377	-0.329090
C44	C	-0.938760	1.161770	-0.453242
C45	C	-1.027803	1.149441	-0.470802
C46	C	-0.373898	1.286761	-0.276275
C47	C	-0.279137	1.299980	-0.257613
C48	C	-0.565300	1.299649	-0.542414
C49	C	-0.552103	1.318360	-0.637166
C50	C	-0.640077	1.478071	-0.289116
C51	C	-0.658746	1.572816	-0.275928
C52	C	-0.690029	1.122631	-0.977557
C53	C	-0.702421	1.105043	-0.888534
C54	C	-0.664843	1.158371	-0.825688
C55	C	-0.614870	1.229290	-0.851873
C56	C	-0.602470	1.246876	-0.940905
C57	C	-0.577284	1.282615	-0.789035
C58	C	-0.527311	1.353535	-0.815221
C59	C	-0.514914	1.371118	-0.904245
C60	C	-0.552492	1.317790	-0.967091
C61	C	-0.589684	1.265029	-0.700004
C62	C	-0.502125	1.389274	-0.663351
C63	C	-0.489733	1.406863	-0.752375
C64	C	-0.627062	1.212058	-0.098564
C65	C	-0.640051	1.193545	-0.003743
H66	H	-0.547812	0.614442	-0.354383
C67	C	-0.787324	0.530693	-0.184764
C68	C	-0.784609	0.538257	-0.093748
C69	C	-0.837802	0.475388	-0.055886
H70	H	-0.845815	0.539684	-0.206293
H71	H	-0.766743	0.473918	-0.199281
H72	H	-0.805194	0.595019	-0.079238
H73	H	-0.726131	0.529257	-0.072194
H74	H	-0.817221	0.418613	-0.070402
H75	H	-0.896290	0.484385	-0.077421
H76	H	-0.835961	0.480507	0.005873
H77	H	-0.954041	1.290059	-0.271395
H78	H	-0.804738	0.709241	-0.172637
H79	H	-1.304092	1.380580	-0.143369
H80	H	-1.142541	1.402961	-0.111506
H81	H	-0.768988	0.861136	-0.197877
C82	C	-0.479770	0.664889	-0.402569
C83	C	-0.406371	0.655471	-0.454517
C84	C	-0.388716	0.566493	-0.467100
H85	H	-0.468575	0.635846	-0.347534
H86	H	-0.528780	0.639965	-0.430918
H87	H	-0.357372	0.680384	-0.426167
H88	H	-0.417547	0.684495	-0.509560
H89	H	-0.437726	0.541569	-0.495449
H90	H	-0.377525	0.537457	-0.412062
H91	H	-0.338919	0.560092	-0.502355
H92	H	-0.449043	1.464605	-0.773708
C93	C	-1.056399	1.095321	-0.547781
C94	C	-1.109363	1.147264	-0.605796
C95	C	-1.135732	1.097437	-0.676712
H96	H	-1.006311	1.074654	-0.577115
H97	H	-1.088465	1.046956	-0.527195
H98	H	-1.077298	1.195613	-0.626382
H99	H	-1.159464	1.167932	-0.576490
H100	H	-1.167798	1.049072	-0.656126
H101	H	-1.085639	1.076772	-0.706038
H102	H	-1.171677	1.132671	-0.716080
C103	C	-0.677244	0.999410	-0.262990
C104	C	-0.761231	1.021822	-0.296511
C105	C	-0.778927	1.110847	-0.284243
H106	H	-0.674106	1.010858	-0.202302
H107	H	-0.635419	1.033154	-0.292636
H108	H	-0.803045	0.988089	-0.266863
H109	H	-0.764389	1.010395	-0.357200
H110	H	-0.737101	1.144591	-0.313889
H111	H	-0.775785	1.122286	-0.223554
H112	H	-0.835909	1.126067	-0.306992
C113	C	-0.644106	1.188140	-0.671633
C114	C	-0.729104	1.199229	-0.707301
C115	C	-0.779272	1.128422	-0.681176
H116	H	-0.618428	1.135434	-0.691728
H117	H	-0.646171	1.185303	-0.609614
H118	H	-0.727036	1.202057	-0.769307
H119	H	-0.754807	1.251922	-0.687210
H120	H	-0.781337	1.125585	-0.619157
H121	H	-0.753587	1.075720	-0.701272
H122	H	-0.836951	1.135940	-0.705366
C123	C	-1.004348	1.337858	-0.203365
C124	C	-0.962018	1.256486	-0.187038
C125	C	-0.872943	1.268627	-0.169397
H126	H	-0.979287	1.366175	-0.252318
H127	H	-0.997699	1.372965	-0.153505
H128	H	-0.968661	1.221392	-0.236892
H129	H	-0.987053	1.228155	-0.138082
H130	H	-0.866294	1.303734	-0.119538
H131	H	-0.847890	1.296946	-0.218353
H132	H	-0.844212	1.213420	-0.158309
H133	H	-0.674938	1.144047	-0.753202
C134	C	-1.339197	1.199114	-0.400980
C135	C	-1.361572	1.232775	-0.484930
C136	C	-1.450626	1.220593	-0.502653
H137	H	-1.350736	1.138427	-0.397905
H138	H	-1.372893	1.228720	-0.359135
H139	H	-1.327888	1.203168	-0.526763
H140	H	-1.350055	1.293462	-0.488025
H141	H	-1.484322	1.250199	-0.460809
H142	H	-1.462157	1.159905	-0.499574
H143	H	-1.465821	1.243437	-0.559611
C144	C	-0.460503	1.447988	-0.932714
C145	C	-0.389217	1.417434	-0.979759
C146	C	-0.339064	1.488218	-1.005984
H147	H	-0.495485	1.487487	-0.968744
H148	H	-0.439842	1.477223	-0.882553
H149	H	-0.409878	1.388213	-1.029912
H150	H	-0.354214	1.377944	-0.943746
H151	H	-0.318404	1.517453	-0.955824
H152	H	-0.374053	1.527712	-1.042011
H153	H	-0.290687	1.467497	-1.037900
C154	C	-0.461249	1.447025	-0.595033
C155	C	-0.404229	1.396277	-0.539875
C156	C	-0.366562	1.449436	-0.476921
H157	H	-0.429640	1.491782	-0.623266
H158	H	-0.505990	1.472740	-0.561496
H159	H	-0.359494	1.370575	-0.573407
H160	H	-0.435816	1.351521	-0.511621
H161	H	-0.411303	1.475152	-0.443384
H162	H	-0.334958	1.494192	-0.505162
H163	H	-0.327876	1.415010	-0.439484
C164	C	-0.870675	1.120801	-0.511190
C165	C	-0.912689	1.074379	-0.576984
C166	C	-0.849993	1.036619	-0.630368
H167	H	-0.837107	1.165459	-0.537054
H168	H	-0.833222	1.082004	-0.476906
H169	H	-0.950127	1.113173	-0.611264
H170	H	-0.946252	1.029708	-0.551145
H171	H	-0.812539	0.997821	-0.596084
H172	H	-0.816428	1.081281	-0.656226
H173	H	-0.878489	1.005110	-0.675011
C174	C	-0.756728	1.028027	-0.860281
C175	C	-0.786998	0.985097	-0.934370
C176	C	-0.837035	0.914145	-0.908378
H177	H	-0.721701	0.988496	-0.824331
H178	H	-0.805180	1.048554	-0.828351
H179	H	-0.738554	0.964569	-0.966286
H180	H	-0.822038	1.024604	-0.970329
H181	H	-0.885486	0.934673	-0.876449
H182	H	-0.802001	0.874621	-0.872428
H183	H	-0.857585	0.885014	-0.958644
H184	H	-0.542408	1.332109	-1.039583
C185	C	-0.368751	0.796200	-0.481063
C186	C	-0.325860	0.870333	-0.511415
C187	C	-0.255030	0.844402	-0.561586
H188	H	-0.329157	0.760247	-0.446113
H189	H	-0.389398	0.764286	-0.529471
H190	H	-0.305212	0.902233	-0.463014
H191	H	-0.365430	0.906295	-0.546378
H192	H	-0.275677	0.812488	-0.609994
H193	H	-0.215443	0.808447	-0.526630
H194	H	-0.225925	0.894696	-0.582192
C195	C	-0.730944	1.064872	-1.045835
C196	C	-0.787994	1.115600	-1.100979
C197	C	-0.825710	1.062415	-1.163881
H198	H	-0.686255	1.039130	-1.079400
H199	H	-0.762534	1.020130	-1.017530
H200	H	-0.756406	1.160326	-1.129282
H201	H	-0.832699	1.141342	-1.067439
H202	H	-0.857300	1.017673	-1.135576
H203	H	-0.781015	1.036676	-1.197439
H204	H	-0.864429	1.096824	-1.201299
C205	C	-1.208193	1.120350	-0.511872
C206	C	-1.255334	1.049109	-0.481254
C207	C	-1.281599	0.998981	-0.551985
H208	H	-1.244178	1.155359	-0.551387
H209	H	-1.158040	1.099646	-0.541099
H210	H	-1.305480	1.069812	-0.452040
H211	H	-1.219365	1.014078	-0.441747
H212	H	-1.231446	0.978278	-0.581212
H213	H	-1.317582	1.033998	-0.591495
H214	H	-1.313580	0.950635	-0.531219
H215	H	-0.419799	0.964619	-0.444864
