data_functionalizedCrystal
_audit_creation_method	'MofGen! by Chris Wilmer'
_symmetry_space_group_name_H-M	'P1'
_symmetry_Int_Tables_number	1
_symmetry_cell_setting	triclinic
loop_
_symmetry_equiv_pos_as_xyz
  x,y,z
_cell_length_a	16.109302
_cell_length_b	10.540535
_cell_length_c	15.186229
_cell_angle_alpha	89.994900
_cell_angle_beta	89.994701
_cell_angle_gamma	83.992711
loop_
_atom_site_label
_atom_site_type_symbol
_atom_site_fract_x
_atom_site_fract_y
_atom_site_fract_z
O1	O	1.104126	0.163164	-0.073271
O2	O	0.862188	0.183467	-0.073264
O3	O	0.988679	-0.011470	-0.073259
O4	O	0.977636	0.358101	-0.073276
O5	O	0.988670	-0.011473	0.073198
O6	O	0.862180	0.183465	0.073193
O7	O	1.104118	0.163161	0.073186
Zn8	Zn	0.983147	0.173312	0.096443
Zn9	Zn	0.983159	0.173316	-0.096521
O10	O	0.977627	0.358098	0.073181
C11	C	0.831204	0.182644	-0.000035
C12	C	0.738894	0.180177	-0.000032
C13	C	0.526513	0.174473	0.079793
C14	C	0.439779	0.172142	0.079791
C15	C	0.439799	0.172152	-0.079885
C16	C	0.526532	0.174473	-0.079881
C17	C	0.569887	0.175641	-0.000039
C18	C	0.396419	0.170988	-0.000046
C19	C	0.302378	0.168460	-0.000050
C20	C	0.663934	0.178166	-0.000035
C21	C	0.987847	-0.058763	-0.000030
C22	C	0.985372	-0.199676	-0.000029
C23	C	0.893018	-0.235030	-0.000032
C24	C	0.890413	-0.381593	-0.000380
C25	C	1.027535	-0.409600	-0.083521
C26	C	1.029500	-0.262863	-0.083576
C27	C	1.030834	-0.263023	0.082979
C28	C	1.026562	-0.409309	0.084061
C29	C	1.135102	0.163985	-0.000045
C30	C	1.227412	0.166451	-0.000054
C31	C	0.978459	0.405391	-0.000050
C32	C	0.980934	0.546304	-0.000057
N33	N	0.983146	0.173309	0.228136
N34	N	0.983167	0.173309	-0.228214
C35	C	1.039175	0.087020	0.453861
C36	C	1.039178	0.087017	0.546051
C37	C	0.927131	0.259603	0.546055
C38	C	0.927125	0.259598	0.453867
C39	C	0.983152	0.173309	0.407772
C40	C	0.983161	0.173310	0.592150
C41	C	0.983163	0.173307	0.692106
C42	C	0.983149	0.173309	0.307810
H43	H	0.561848	0.175421	-0.144895
C44	C	0.841753	-0.419780	0.079405
C45	C	0.814445	-0.310794	0.128365
C46	C	0.769602	-0.345911	0.201862
H47	H	0.876708	-0.477015	0.115010
H48	H	0.794891	-0.460280	0.060440
H49	H	0.861301	-0.270313	0.147330
H50	H	0.779479	-0.253546	0.092786
H51	H	0.722739	-0.386411	0.182898
H52	H	0.804562	-0.403147	0.237460
H53	H	0.751061	-0.271969	0.235086
C54	C	1.099920	-0.006591	0.403655
C55	C	1.087924	0.011865	0.313055
C56	C	1.143856	-0.074367	0.266781
H57	H	1.090402	-0.091342	0.418690
H58	H	1.155522	0.007164	0.418679
H59	H	1.032335	-0.001901	0.298038
H60	H	1.097448	0.096598	0.297994
H61	H	1.199458	-0.060611	0.281805
H62	H	1.134333	-0.159112	0.281824
H63	H	1.135729	-0.061848	0.205305
H64	H	0.858151	-0.191067	-0.059797
C65	C	0.842075	-0.418595	-0.080703
C66	C	0.815104	-0.308922	-0.129110
C67	C	0.770578	-0.342958	-0.203116
H68	H	0.795076	-0.459223	-0.062329
H69	H	0.877177	-0.475441	-0.116453
H70	H	0.780003	-0.252097	-0.093366
H71	H	0.862086	-0.268280	-0.147505
H72	H	0.805680	-0.399803	-0.238867
H73	H	0.723583	-0.383586	-0.184735
H74	H	0.752279	-0.268552	-0.235974
C75	C	0.573609	0.175988	0.166450
C76	C	0.614676	0.286477	0.171131
C77	C	0.658056	0.287920	0.250953
H78	H	0.613407	0.103003	0.169855
H79	H	0.535372	0.175025	0.214020
H80	H	0.652909	0.287429	0.123575
H81	H	0.574897	0.359480	0.167741
H82	H	0.619820	0.286957	0.298523
H83	H	0.697850	0.214930	0.254352
H84	H	0.685919	0.362891	0.254144
C85	C	0.866349	0.353494	0.595987
C86	C	0.880550	0.478236	0.573530
C87	C	0.824565	0.564765	0.619497
H88	H	0.874315	0.341322	0.657506
H89	H	0.810766	0.339756	0.580869
H90	H	0.936120	0.491969	0.588654
H91	H	0.872578	0.490448	0.512018
H92	H	0.768982	0.551027	0.604379
H93	H	0.832536	0.552582	0.681014
H94	H	0.834188	0.649411	0.604260
C95	C	0.987475	-0.208914	-0.167109
C96	C	0.960563	-0.308488	-0.217058
C97	C	0.921834	-0.258844	-0.294009
H98	H	1.026067	-0.166445	-0.200508
H99	H	0.940852	-0.150172	-0.152025
H100	H	1.007180	-0.367208	-0.232144
H101	H	0.921961	-0.350966	-0.183686
H102	H	0.875210	-0.200103	-0.278925
H103	H	0.960431	-0.216377	-0.327400
H104	H	0.903563	-0.326396	-0.327905
H105	H	0.404489	0.171203	-0.144890
C106	C	0.392832	0.170948	0.166560
C107	C	0.449366	0.172498	0.236477
C108	C	0.406148	0.171414	0.316425
H109	H	0.364897	0.096082	0.170007
H110	H	0.353108	0.244049	0.169922
H111	H	0.489075	0.099405	0.233117
H112	H	0.477303	0.247359	0.233059
H113	H	0.366424	0.244515	0.319787
H114	H	0.378214	0.096547	0.319863
H115	H	0.444498	0.172478	0.363873
H116	H	1.097203	-0.240796	-0.087132
H117	H	1.094184	-0.457906	-0.086393
H118	H	1.084796	0.016751	0.583573
C119	C	0.981447	-0.446659	0.166504
C120	C	1.022707	-0.406551	0.241027
C121	C	0.981164	-0.440930	0.316986
H122	H	0.981052	-0.536681	0.168164
H123	H	0.925670	-0.407142	0.165825
H124	H	1.078469	-0.446072	0.241706
H125	H	1.023103	-0.316534	0.239396
H126	H	0.925387	-0.401413	0.316307
H127	H	0.980771	-0.530951	0.318637
H128	H	1.009148	-0.413711	0.367558
H129	H	1.092631	-0.459286	0.089350
H130	H	1.098781	-0.241796	0.083791
H131	H	0.881501	0.329866	0.416339
H132	H	0.857550	-0.192564	0.059816
H133	H	0.995569	-0.440035	-0.145877
H134	H	1.002012	-0.220163	0.146268
