data_functionalizedCrystal
_audit_creation_method	'MofGen! by Chris Wilmer'
_symmetry_space_group_name_H-M	'P1'
_symmetry_Int_Tables_number	1
_symmetry_cell_setting	triclinic
loop_
_symmetry_equiv_pos_as_xyz
  x,y,z
_cell_length_a	8.497365
_cell_length_b	18.215405
_cell_length_c	18.215407
_cell_angle_alpha	90.025333
_cell_angle_beta	90.034535
_cell_angle_gamma	90.057023
loop_
_atom_site_label
_atom_site_type_symbol
_atom_site_fract_x
_atom_site_fract_y
_atom_site_fract_z
Zn1	Zn	-0.891980	0.292791	-1.125179
Zn2	Zn	-0.628156	0.415919	-1.125056
Zn3	Zn	-0.628198	0.292872	-1.002080
Zn4	Zn	-0.891879	0.415821	-1.002077
O5	O	-0.760053	0.354351	-1.063598
O6	O	-0.857008	0.309131	-1.228147
O7	O	-0.407399	0.399671	-1.108692
O8	O	-0.663248	0.189877	-1.018462
O9	O	-0.663178	0.399593	-1.228056
O10	O	-0.857048	0.189817	-1.108902
O11	O	-0.407429	0.309269	-1.018342
O12	O	-0.663151	0.309174	-0.899095
O13	O	-1.112655	0.399426	-1.018457
O14	O	-0.856876	0.399504	-0.899093
O15	O	-1.112729	0.309036	-1.108900
O16	O	-0.663080	0.518890	-1.108690
O17	O	-0.856836	0.518818	-1.018338
C18	C	-0.759977	0.545557	-1.063520
C19	C	-0.759998	0.627356	-1.063554
C20	C	-0.760008	0.354338	-0.872392
C21	C	-0.760026	0.354350	-0.790593
C22	C	-0.760099	0.354364	-1.255551
C23	C	-0.760119	0.354369	-1.337350
C24	C	-0.350173	0.354431	-1.063545
C25	C	-0.171530	0.354280	-1.063650
C26	C	-0.760164	0.162398	-1.063696
C27	C	-0.760211	0.080599	-1.063738
C28	C	-0.659294	0.815563	-1.110711
C29	C	-0.659333	0.892421	-1.110744
C30	C	-0.860925	0.892386	-1.016579
C31	C	-0.860894	0.815529	-1.016550
C32	C	-0.760069	0.777119	-1.063615
C33	C	-0.760139	0.930835	-1.063677
C34	C	-0.760181	1.014169	-1.063712
C35	C	-0.760029	0.693780	-1.063581
C36	C	-0.860772	0.401459	-0.602417
C37	C	-0.860792	0.401462	-0.525558
C38	C	-0.659368	0.307255	-0.525531
C39	C	-0.659358	0.307250	-0.602388
C40	C	-0.760057	0.354356	-0.640829
C41	C	-0.760088	0.354364	-0.487113
C42	C	-0.760108	0.354366	-0.403779
C43	C	-0.760039	0.354353	-0.724168
H44	H	-0.577199	0.784291	-1.149035
C45	C	-0.548465	0.934706	-1.162550
N46	N	-0.464954	0.966554	-1.201572
H47	H	-0.943010	0.923669	-0.978259
H48	H	-0.942964	0.784226	-0.978199
C49	C	-0.971556	0.453272	-0.644700
N50	N	-1.055007	0.492297	-0.676545
H51	H	-0.942806	0.439817	-0.494287
H52	H	-0.577380	0.268904	-0.494223
C53	C	-0.548557	0.255430	-0.644644
N54	N	-0.465108	0.216400	-0.676471
