data_functionalizedCrystal
_audit_creation_method	'MofGen! by Chris Wilmer'
_symmetry_space_group_name_H-M	'P1'
_symmetry_Int_Tables_number	1
_symmetry_cell_setting	triclinic
loop_
_symmetry_equiv_pos_as_xyz
  x,y,z
_cell_length_a	9.065215
_cell_length_b	23.532407
_cell_length_c	22.010155
_cell_angle_alpha	89.997764
_cell_angle_beta	89.985595
_cell_angle_gamma	83.931687
loop_
_atom_site_label
_atom_site_type_symbol
_atom_site_fract_x
_atom_site_fract_y
_atom_site_fract_z
O1	O	1.956314	0.083483	-0.050525
O2	O	1.526691	0.090334	-0.050529
O3	O	1.754458	0.004072	-0.050516
O4	O	1.728547	0.169745	-0.050538
O5	O	1.754390	0.004083	0.050535
O6	O	1.526623	0.090345	0.050522
O7	O	1.956246	0.083494	0.050525
Cu8	Cu	1.741428	0.086921	0.059750
Cu9	Cu	1.741509	0.086908	-0.059754
O10	O	1.728479	0.169756	0.050512
C11	C	1.471703	0.089682	-0.000004
C12	C	1.307957	0.087714	-0.000005
C13	C	1.753764	-0.017143	0.000011
C14	C	1.751780	-0.080375	0.000016
C15	C	1.874125	-0.478580	-0.000017
C16	C	1.872282	-0.537994	-0.000021
O17	O	1.985698	-0.573906	-0.000043
N18	N	1.736875	-0.561614	-0.000022
C19	C	1.603302	-0.525816	-0.000024
O20	O	1.487958	-0.551362	-0.000026
C21	C	1.605146	-0.466404	-0.000024
C22	C	1.740562	-0.442787	-0.000017
C23	C	2.009530	-0.454963	-0.000011
C24	C	2.011373	-0.395554	-0.000005
C25	C	1.877810	-0.359761	-0.000005
C26	C	1.742405	-0.383378	-0.000011
C27	C	1.471575	-0.430607	-0.000030
C28	C	1.473431	-0.371191	-0.000031
C29	C	1.608847	-0.347575	-0.000024
C30	C	1.610684	-0.288175	-0.000006
N31	N	1.746091	-0.264555	-0.000005
C32	C	1.879654	-0.300348	-0.000005
C33	C	1.599439	-0.650587	-0.000026
C34	C	1.597593	-0.709999	-0.000022
C35	C	1.866574	-0.722172	-0.000020
C36	C	1.868419	-0.662760	-0.000020
C37	C	1.734846	-0.626967	-0.000025
C38	C	1.883513	-0.175583	0.000008
C39	C	1.885343	-0.116168	0.000016
C40	C	1.616363	-0.103999	0.000011
C41	C	1.614532	-0.163410	0.000006
C42	C	1.748119	-0.199201	0.000002
O43	O	1.497328	-0.252228	0.000013
O44	O	1.994979	-0.274794	-0.000011
C45	C	2.011234	0.084147	-0.000001
C46	C	2.174980	0.086114	-0.000004
C47	C	1.729173	0.190972	-0.000016
C48	C	1.731157	0.254203	-0.000025
N49	N	1.741382	0.086930	0.143802
C50	C	1.652507	0.051889	0.436412
C51	C	1.652496	0.051891	0.372804
O52	O	1.576880	0.022096	0.339910
N53	N	1.741436	0.086914	0.340987
C54	C	1.830406	0.121934	0.372780
O55	O	1.906057	0.151724	0.339876
C56	C	1.830425	0.121929	0.436387
C57	C	1.741467	0.086907	0.468201
C58	C	1.563558	0.016870	0.468226
C59	C	1.563568	0.016869	0.531829
C60	C	1.652527	0.051888	0.563618
C61	C	1.741477	0.086907	0.531804
C62	C	1.919401	0.156945	0.468179
C63	C	1.919413	0.156937	0.531790
C64	C	1.830455	0.121915	0.563604
C65	C	1.830446	0.121924	0.627196
N66	N	1.741505	0.086901	0.659014
C67	C	1.652546	0.051882	0.627224
C68	C	1.830362	0.121942	0.239202
C69	C	1.830337	0.121950	0.175597
C70	C	1.652428	0.051906	0.175625
C71	C	1.652446	0.051901	0.239232
C72	C	1.741421	0.086918	0.271020
C73	C	1.652572	0.051884	0.760796
C74	C	1.652586	0.051888	0.824405
C75	C	1.830500	0.121929	0.824371
C76	C	1.830481	0.121928	0.760768
C77	C	1.741513	0.086900	0.728982
O78	O	1.906027	0.151702	0.660130
O79	O	1.576922	0.022092	0.660136
N80	N	1.741545	0.086906	0.856194
H81	H	1.995620	-0.096943	0.000023
O82	O	1.566007	0.017845	0.730019
C83	C	1.487537	-0.013070	0.771749
H84	H	1.478608	0.010461	0.817088
H85	H	1.371583	-0.017224	0.753394
H86	H	1.548963	-0.057444	0.778508
H87	H	1.580009	0.023383	0.265131
O88	O	1.916974	0.155869	0.729794
C89	C	2.018169	0.121684	0.693008
H90	H	1.972885	0.079184	0.683484
H91	H	2.034274	0.144664	0.648277
H92	H	2.129175	0.113561	0.717514
O93	O	2.005884	0.191007	0.562573
C94	C	2.084417	0.221904	0.520848
H95	H	2.023289	0.224899	0.475517
H96	H	2.092918	0.266733	0.539222
H97	H	2.200546	0.199064	0.514067
O98	O	1.566381	0.017833	0.855375
C99	C	1.656906	-0.020551	0.892146
H100	H	1.766093	-0.002240	0.901664
H101	H	1.597703	-0.027217	0.936880
H102	H	1.680121	-0.063235	0.867629
H103	H	1.902925	0.150442	0.850265
H104	H	1.491134	-0.011651	0.557726
H105	H	2.121642	-0.376331	-0.000002
O106	O	2.013412	-0.210263	0.000033
C107	C	2.133304	-0.176667	0.000025
H108	H	2.095155	-0.132534	0.019157
H109	H	2.226816	-0.198087	0.029365
H110	H	2.174889	-0.172215	-0.048452
O111	O	1.486761	-0.069143	-0.000017
C112	C	1.517442	-0.011641	0.000001
H113	H	1.633296	-0.008765	-0.019123
H114	H	1.432288	0.014832	-0.029340
H115	H	1.511552	0.005506	0.048481
H116	H	2.118300	-0.484100	-0.000013
O117	O	1.476994	-0.017164	0.437446
C118	C	1.398532	-0.048080	0.479178
H119	H	1.389615	-0.024551	0.524518
H120	H	1.282574	-0.052233	0.460827
H121	H	1.459958	-0.092454	0.485933
H122	H	1.978686	-0.643536	-0.000015
H123	H	1.991843	0.185463	0.442287
O124	O	1.565789	0.017949	0.144770
C125	C	1.415834	0.032910	0.160344
H126	H	1.400893	0.078755	0.177833
H127	H	1.343306	0.029203	0.118524
H128	H	1.382047	0.002869	0.197269
O129	O	1.916652	0.156056	0.144765
C130	C	1.874895	0.213638	0.160306
H131	H	1.817644	0.215768	0.206493
H132	H	1.977827	0.237517	0.162476
H133	H	1.795452	0.234190	0.124516
O134	O	1.996187	-0.757029	-0.000054
C135	C	1.965506	-0.814531	-0.000044
H136	H	1.849677	-0.817404	-0.019172
H137	H	2.050699	-0.841000	-0.029388
H138	H	1.971332	-0.831685	0.048433
H139	H	1.490661	-0.621448	-0.000025
O140	O	1.465920	-0.732842	-0.000049
C141	C	1.348441	-0.688503	-0.000031
H142	H	1.389208	-0.647937	-0.019158
H143	H	1.253862	-0.701404	-0.029371
H144	H	1.307254	-0.680315	0.048448
O145	O	1.339900	-0.453445	-0.000067
C146	C	1.222430	-0.409102	-0.000056
H147	H	1.263213	-0.368539	-0.019181
H148	H	1.127856	-0.422000	-0.029401
H149	H	1.181230	-0.400912	0.048421
H150	H	1.364657	-0.342051	-0.000036
H151	H	1.504265	-0.182639	0.000017
O152	O	1.916993	0.155935	0.270012
C153	C	2.066950	0.140956	0.254453
H154	H	2.073591	0.118901	0.208272
H155	H	2.126764	0.181154	0.252261
H156	H	2.121755	0.110701	0.290245
