data_functionalizedCrystal
_audit_creation_method	'MofGen! by Chris Wilmer'
_symmetry_space_group_name_H-M	'P1'
_symmetry_Int_Tables_number	1
_symmetry_cell_setting	triclinic
loop_
_symmetry_equiv_pos_as_xyz
  x,y,z
_cell_length_a	18.050591
_cell_length_b	18.050589
_cell_length_c	18.050582
_cell_angle_alpha	90.020828
_cell_angle_beta	89.995463
_cell_angle_gamma	89.963064
loop_
_atom_site_label
_atom_site_type_symbol
_atom_site_fract_x
_atom_site_fract_y
_atom_site_fract_z
Zn1	Zn	1.135253	0.295687	-0.419716
Zn2	Zn	1.135147	0.419870	-0.295530
Zn3	Zn	1.011072	0.295700	-0.295562
Zn4	Zn	1.011003	0.419841	-0.419701
O5	O	1.073119	0.357775	-0.357627
O6	O	1.239163	0.312166	-0.403235
O7	O	1.118672	0.403416	-0.191609
O8	O	1.027618	0.191774	-0.312052
O9	O	1.239085	0.403403	-0.311996
O10	O	1.118853	0.191764	-0.403267
O11	O	1.027515	0.312189	-0.191633
O12	O	0.907138	0.312162	-0.312037
O13	O	1.027501	0.403354	-0.523627
O14	O	0.907088	0.403368	-0.403241
O15	O	1.118786	0.312138	-0.523638
O16	O	1.118606	0.523791	-0.311981
O17	O	1.027398	0.523770	-0.403209
C18	C	0.880167	0.357764	-0.357641
C19	C	0.797621	0.357777	-0.357665
C20	C	1.073003	0.550727	-0.357606
C21	C	1.073022	0.633272	-0.357622
C22	C	1.073148	0.357742	-0.551333
C23	C	1.073160	0.357728	-0.633879
C24	C	1.266824	0.357786	-0.357613
C25	C	1.349370	0.357791	-0.357607
C26	C	1.548778	0.407407	-0.308010
C27	C	1.598210	0.339655	-0.289862
C28	C	1.500500	0.357784	-0.357627
C29	C	1.598150	0.425529	-0.375758
C30	C	1.646486	0.357784	-0.357644
C31	C	1.548845	0.289996	-0.339444
C32	C	1.548780	0.375916	-0.425371
C33	C	1.598190	0.308117	-0.407249
C34	C	1.416402	0.357786	-0.357615
C35	C	1.730582	0.357776	-0.357655
C36	C	1.023473	0.882114	-0.407233
C37	C	1.091195	0.832644	-0.425445
C38	C	1.073143	0.930393	-0.357665
C39	C	1.005365	0.832781	-0.339467
C40	C	1.073080	0.784408	-0.357645
C41	C	1.140901	0.882010	-0.375912
C42	C	1.055025	0.882152	-0.289902
C43	C	1.122794	0.832704	-0.308088
C44	C	1.073178	1.014491	-0.357678
C45	C	1.073052	0.700311	-0.357632
C46	C	1.073227	1.164069	-0.357666
C47	C	1.073202	1.081523	-0.357686
C48	C	1.023557	0.407263	-0.833323
C49	C	1.091310	0.425415	-0.882703
C50	C	1.073197	0.357671	-0.785009
C51	C	1.005481	0.339498	-0.882711
C52	C	1.073226	0.357618	-0.930994
C53	C	1.140985	0.375859	-0.833301
C54	C	1.055111	0.289910	-0.833305
C55	C	1.122910	0.308036	-0.882663
C56	C	1.073179	0.357703	-0.700911
C57	C	1.073252	0.357585	-1.015091
C58	C	1.073132	0.357754	-0.164675
C59	C	1.073264	0.357559	-0.082130
H60	H	1.527083	0.449320	-0.266011
H61	H	1.039776	0.232645	-0.811591
H62	H	1.198210	0.903546	-0.391362
C63	C	1.111872	0.501735	-0.911690
C64	C	1.176483	0.496557	-0.954307
C65	C	1.195444	0.566848	-0.981014
H66	H	1.072673	0.520391	-0.941439
H67	H	1.120119	0.534272	-0.871143
H68	H	1.168232	0.464031	-0.994849
H69	H	1.215696	0.477914	-0.924574
H70	H	1.203691	0.599386	-0.940467
H71	H	1.156241	0.585499	-1.010760
H72	H	1.239288	0.563346	-1.009927
C73	C	1.627135	0.319346	-0.213433
C74	C	1.602122	0.371486	-0.161700
C75	C	1.628761	0.352815	-0.091288
H76	H	1.609550	0.271586	-0.200110
H77	H	1.679763	0.319086	-0.214083
H78	H	1.549505	0.371738	-0.161047
H79	H	1.619706	0.419250	-0.174999
H80	H	1.681390	0.352555	-0.091938
H81	H	1.611174	0.305054	-0.077972
H82	H	1.611800	0.388191	-0.056179
C83	C	0.929012	0.803807	-0.319000
C84	C	0.930144	0.726249	-0.318626
C85	C	0.859816	0.699538	-0.299793
H86	H	0.915752	0.821409	-0.271202
H87	H	0.893796	0.820688	-0.354288
H88	H	0.965348	0.709375	-0.283339
H89	H	0.943391	0.708626	-0.366417
H90	H	0.824601	0.716419	-0.335082
H91	H	0.846562	0.717146	-0.251997
H92	H	0.860573	0.646913	-0.299544
C93	C	1.626980	0.252222	-0.463308
C94	C	1.669606	0.288863	-0.516731
C95	C	1.696130	0.237397	-0.568387
H96	H	1.656684	0.216381	-0.438751
H97	H	1.586348	0.228303	-0.486679
H98	H	1.710232	0.312770	-0.493362
H99	H	1.639919	0.324699	-0.541306
H100	H	1.655499	0.213478	-0.591757
H101	H	1.725831	0.201559	-0.543823
H102	H	1.725049	0.262251	-0.604644
C103	C	0.967733	0.463370	-0.804471
C104	C	0.987035	0.534188	-0.829488
C105	C	0.935637	0.585893	-0.802915
H106	H	0.919712	0.451050	-0.822098
H107	H	0.967805	0.462734	-0.751842
H108	H	0.986955	0.534822	-0.882106
H109	H	1.035047	0.546531	-0.811862
H110	H	0.935709	0.585257	-0.750286
H111	H	0.887619	0.573566	-0.820544
H112	H	0.948730	0.633950	-0.819879
H113	H	1.164819	0.811147	-0.266161
C114	C	1.519949	0.213637	-0.318909
C115	C	1.442387	0.214539	-0.319101
C116	C	1.415741	0.144214	-0.300186
H117	H	1.537190	0.178310	-0.353921
H118	H	1.537238	0.200654	-0.270925
H119	H	1.425105	0.227514	-0.367078
H120	H	1.425127	0.249852	-0.284089
H121	H	1.433030	0.131230	-0.252202
H122	H	1.432987	0.108893	-0.335200
H123	H	1.363113	0.144818	-0.300307
C124	C	1.519655	0.396345	-0.501687
C125	C	1.442100	0.395387	-0.500815
C126	C	1.415243	0.414201	-0.571106
H127	H	1.536426	0.444517	-0.514569
H128	H	1.537268	0.361571	-0.537079
H129	H	1.424495	0.430160	-0.465434
H130	H	1.425310	0.347221	-0.487946
H131	H	1.432856	0.379427	-0.606499
H132	H	1.432019	0.462373	-0.583982
H133	H	1.362620	0.413547	-0.570526
C134	C	1.626927	0.501985	-0.396102
C135	C	1.601873	0.553706	-0.343971
C136	C	1.628356	0.624146	-0.362686
H137	H	1.679547	0.501427	-0.396392
H138	H	1.609253	0.515246	-0.443869
H139	H	1.619551	0.540449	-0.296217
H140	H	1.549256	0.554288	-0.343673
H141	H	1.610682	0.637408	-0.410454
H142	H	1.680976	0.623581	-0.362977
H143	H	1.611356	0.659249	-0.327323
C144	C	1.217321	0.396442	-0.804346
C145	C	1.216401	0.396280	-0.726785
C146	C	1.286702	0.415250	-0.700084
H147	H	1.252685	0.361447	-0.821554
H148	H	1.230264	0.444428	-0.821629
H149	H	1.203467	0.348301	-0.709508
H150	H	1.181052	0.431276	-0.709556
H151	H	1.299645	0.463236	-0.717368
H152	H	1.322060	0.380253	-0.717298
H153	H	1.286085	0.415149	-0.647457
C154	C	1.179079	0.252183	-0.911335
C155	C	1.249846	0.271525	-0.886178
C156	C	1.301610	0.220101	-0.912585
H157	H	1.166731	0.204183	-0.893689
H158	H	1.178546	0.252191	-0.963965
H159	H	1.250377	0.271510	-0.833558
H160	H	1.262217	0.319517	-0.903821
H161	H	1.301076	0.220108	-0.965216
H162	H	1.289254	0.172103	-0.894938
H163	H	1.349631	0.233221	-0.895526
H164	H	1.106498	0.810899	-0.482742
H165	H	0.981548	0.903806	-0.449192
H166	H	0.948203	0.324150	-0.904415
C167	C	1.034697	0.911074	-0.213460
C168	C	1.086037	0.884939	-0.161517
C169	C	1.067320	0.911561	-0.091091
H170	H	1.035331	0.963692	-0.213815
H171	H	0.986541	0.894229	-0.200562
H172	H	1.134181	0.901788	-0.174412
H173	H	1.085411	0.832324	-0.161139
H174	H	1.019164	0.894716	-0.078192
H175	H	1.067954	0.964179	-0.091453
H176	H	1.102147	0.893827	-0.055838
