data_functionalizedCrystal
_audit_creation_method	'MofGen! by Chris Wilmer'
_symmetry_space_group_name_H-M	'P1'
_symmetry_Int_Tables_number	1
_symmetry_cell_setting	triclinic
loop_
_symmetry_equiv_pos_as_xyz
  x,y,z
_cell_length_a	18.050591
_cell_length_b	29.839131
_cell_length_c	18.050583
_cell_angle_alpha	90.035362
_cell_angle_beta	90.013856
_cell_angle_gamma	90.040261
loop_
_atom_site_label
_atom_site_type_symbol
_atom_site_fract_x
_atom_site_fract_y
_atom_site_fract_z
Zn1	Zn	1.135249	-0.178852	0.419811
Zn2	Zn	1.135124	-0.253987	0.295614
Zn3	Zn	1.011061	-0.178870	0.295644
Zn4	Zn	1.010987	-0.253954	0.419772
O5	O	1.073105	-0.216416	0.357711
O6	O	1.239157	-0.188825	0.403339
O7	O	1.118645	-0.244044	0.191694
O8	O	1.027618	-0.116001	0.312144
O9	O	1.239065	-0.244026	0.312093
O10	O	1.118858	-0.115987	0.403368
O11	O	1.027496	-0.188856	0.191716
O12	O	0.907126	-0.188824	0.312107
O13	O	1.027492	-0.243970	0.523702
O14	O	0.907072	-0.243988	0.403303
O15	O	1.118787	-0.188793	0.523730
O16	O	1.118574	-0.316850	0.312056
O17	O	1.027371	-0.316826	0.403274
C18	C	0.880153	-0.216405	0.357704
C19	C	0.797607	-0.216411	0.357719
C20	C	1.072971	-0.333139	0.357674
C21	C	1.072981	-0.383073	0.357683
C22	C	0.548774	-0.246471	0.407244
C23	C	0.598136	-0.257410	0.339458
C24	C	0.500487	-0.216425	0.357718
C25	C	0.598206	-0.205501	0.425502
C26	C	0.646472	-0.216419	0.357722
C27	C	0.548761	-0.227385	0.289895
C28	C	0.548828	-0.175457	0.375985
C29	C	0.598168	-0.186380	0.308151
C30	C	0.416388	-0.216430	0.357717
C31	C	0.730568	-0.216415	0.357716
C32	C	1.120680	-0.692716	0.310283
C33	C	1.120772	-0.880389	0.310311
O34	O	1.161221	-0.904654	0.269982
N35	N	1.073259	-0.903858	0.357767
C36	C	1.025723	-0.880405	0.405221
O37	O	0.985318	-0.904673	0.445591
C38	C	1.025636	-0.692733	0.405196
C39	C	1.073147	-0.669267	0.357732
C40	C	1.168188	-0.669250	0.262823
C41	C	1.168162	-0.622335	0.262814
C42	C	1.120628	-0.598885	0.310263
C43	C	1.073120	-0.622352	0.357723
C44	C	0.978104	-0.669282	0.452654
C45	C	0.978088	-0.622361	0.452644
C46	C	1.025599	-0.598894	0.405181
C47	C	1.025560	-0.551987	0.405163
N48	N	1.073073	-0.528518	0.357707
C49	C	1.120607	-0.551968	0.310258
C50	C	1.025771	-0.978936	0.405230
C51	C	1.025792	-1.025854	0.405236
C52	C	1.120842	-1.025835	0.310327
C53	C	1.120817	-0.978916	0.310318
C54	C	1.073284	-0.955467	0.357775
C55	C	1.120548	-0.453442	0.310241
C56	C	1.120515	-0.406522	0.310233
C57	C	1.025468	-0.406546	0.405145
C58	C	1.025498	-0.453461	0.405150
C59	C	1.073044	-0.476908	0.357695
O60	O	0.985138	-0.527693	0.445477
O61	O	1.161018	-0.527692	0.269906
C62	C	1.120707	-0.739632	0.310292
C63	C	1.073199	-0.763098	0.357751
C64	C	1.025665	-0.739649	0.405201
C65	C	1.073220	-0.810016	0.357757
C66	C	1.120754	-0.833465	0.310307
C67	C	1.168267	-0.809996	0.262852
C68	C	1.168241	-0.763081	0.262843
C69	C	0.978152	-0.763117	0.452656
C70	C	0.978182	-0.810033	0.452661
C71	C	1.025716	-0.833482	0.405212
C72	C	1.266811	-0.216427	0.357717
C73	C	1.349356	-0.216432	0.357720
C74	C	1.073260	-0.099238	0.357764
C75	C	1.073326	-0.049303	0.357786
C76	C	1.073145	-0.216376	0.551416
C77	C	1.073163	-0.216359	0.633962
C78	C	1.073108	-0.216424	0.164758
C79	C	1.073234	-0.216314	0.082213
C80	C	1.122855	-0.186323	0.882803
C81	C	1.140961	-0.227315	0.833384
C82	C	1.073210	-0.216330	0.931083
C83	C	1.055116	-0.175354	0.833420
C84	C	1.073189	-0.216342	0.785097
C85	C	1.091352	-0.257344	0.882751
C86	C	1.005475	-0.205355	0.882791
C87	C	1.023555	-0.246376	0.833394
C88	C	1.073225	-0.216323	1.015181
C89	C	1.073174	-0.216354	0.701001
H90	H	0.527086	-0.271902	0.449073
H91	H	1.039821	-0.140697	0.811748
H92	H	1.206929	-0.743978	0.224193
H93	H	1.206969	-0.829097	0.224215
H94	H	0.986813	-0.472568	0.443801
H95	H	0.619795	-0.292054	0.324003
H96	H	0.527134	-0.236665	0.232558
H97	H	0.986764	-0.387446	0.443776
H98	H	1.206851	-0.603231	0.224167
H99	H	0.981564	-0.271786	0.811837
H100	H	0.619718	-0.160969	0.266222
H101	H	1.198234	-0.236605	0.811680
H102	H	0.527152	-0.140823	0.391459
H103	H	0.619925	-0.196263	0.482824
H104	H	0.948219	-0.196052	0.904510
H105	H	1.159204	-0.387417	0.271580
H106	H	1.164879	-0.160973	0.904496
H107	H	1.159266	-0.472527	0.271600
H108	H	1.206900	-0.688337	0.224184
H109	H	1.106730	-0.292009	0.904330
H110	H	1.159505	-0.959812	0.271670
H111	H	0.939445	-0.744029	0.491296
H112	H	1.159546	-1.044935	0.271692
H113	H	0.987097	-1.044956	0.443879
H114	H	0.987062	-0.959848	0.443877
H115	H	0.939412	-0.688380	0.491300
H116	H	0.939486	-0.829135	0.491311
H117	H	0.939382	-0.603271	0.491292
