data_functionalizedCrystal
_audit_creation_method	'MofGen! by Chris Wilmer'
_symmetry_space_group_name_H-M	'P1'
_symmetry_Int_Tables_number	1
_symmetry_cell_setting	triclinic
loop_
_symmetry_equiv_pos_as_xyz
  x,y,z
_cell_length_a	18.215407
_cell_length_b	18.215405
_cell_length_c	18.215399
_cell_angle_alpha	89.969449
_cell_angle_beta	89.982632
_cell_angle_gamma	90.022329
loop_
_atom_site_label
_atom_site_type_symbol
_atom_site_fract_x
_atom_site_fract_y
_atom_site_fract_z
Zn1	Zn	1.125072	-0.293042	-0.416054
Zn2	Zn	1.458405	0.040291	-0.082721
Zn3	Zn	1.791739	0.373625	0.250613
Zn4	Zn	1.124980	-0.416113	-0.292982
Zn5	Zn	1.458314	-0.082780	0.040351
Zn6	Zn	1.791647	0.250553	0.373684
Zn7	Zn	1.002004	-0.293060	-0.293007
Zn8	Zn	1.335338	0.040274	0.040327
Zn9	Zn	1.668671	0.373607	0.373660
Zn10	Zn	1.001970	-0.416066	-0.416012
Zn11	Zn	1.335304	-0.082733	-0.082679
Zn12	Zn	1.668637	0.250601	0.250654
O13	O	1.063507	-0.354570	-0.354514
O14	O	1.396840	-0.021237	-0.021181
O15	O	1.730173	0.312096	0.312153
O16	O	1.228044	-0.309380	-0.399736
O17	O	1.561377	0.023953	-0.066402
O18	O	1.894711	0.357286	0.266931
O19	O	1.108643	-0.399817	-0.190001
O20	O	1.441977	-0.066484	0.143332
O21	O	1.775310	0.266849	0.476665
O22	O	1.018382	-0.190073	-0.309357
O23	O	1.351716	0.143260	0.023976
O24	O	1.685049	0.476594	0.357310
O25	O	1.227977	-0.399800	-0.309315
O26	O	1.561310	-0.066467	0.024018
O27	O	1.894643	0.266867	0.357351
O28	O	1.108799	-0.190060	-0.399759
O29	O	1.442133	0.143273	-0.066426
O30	O	1.775466	0.476607	0.266907
O31	O	1.018293	-0.309410	-0.190019
O32	O	1.351627	0.023923	0.143314
O33	O	1.684960	0.357256	0.476647
O34	O	0.899016	-0.309364	-0.309317
O35	O	1.232349	0.023969	0.024017
O36	O	1.565682	0.357302	0.357350
O37	O	1.018324	-0.399719	-0.519002
O38	O	1.351657	-0.066386	-0.185669
O39	O	1.684991	0.266947	0.147664
O40	O	0.898991	-0.399736	-0.399688
O41	O	1.232324	-0.066403	-0.066355
O42	O	1.565657	0.266930	0.266978
O43	O	1.108766	-0.309334	-0.519033
O44	O	1.442100	0.023999	-0.185700
O45	O	1.775433	0.357332	0.147634
O46	O	1.108610	-0.519091	-0.309275
O47	O	1.441943	-0.185758	0.024059
O48	O	1.775277	0.147575	0.357392
O49	O	1.018235	-0.519056	-0.399665
O50	O	1.351569	-0.185723	-0.066331
O51	O	1.684902	0.147610	0.267002
C52	C	0.872301	-0.354548	-0.354501
C53	C	1.205634	-0.021214	-0.021168
C54	C	1.538967	0.312119	0.312166
C55	C	0.790502	-0.354556	-0.354513
C56	C	1.123835	-0.021222	-0.021180
C57	C	1.457168	0.312111	0.312154
C58	C	0.602342	-0.307571	-0.401669
C59	C	0.935675	0.025762	-0.068336
C60	C	1.269008	0.359096	0.264997
C61	C	0.525483	-0.307577	-0.401672
C62	C	0.858816	0.025756	-0.068338
C63	C	1.192150	0.359089	0.264995
C64	C	0.525424	-0.401590	-0.307372
C65	C	0.858757	-0.068257	0.025962
C66	C	1.192090	0.265076	0.359295
C67	C	0.602281	-0.401580	-0.307366
C68	C	0.935615	-0.068246	0.025967
C69	C	1.268948	0.265087	0.359301
C70	C	0.640738	-0.354571	-0.354519
C71	C	0.974071	-0.021238	-0.021186
C72	C	1.307405	0.312096	0.312148
C73	C	0.487022	-0.354588	-0.354527
C74	C	0.820355	-0.021255	-0.021194
C75	C	1.153689	0.312079	0.312140
C76	C	0.403688	-0.354595	-0.354529
C77	C	0.737022	-0.021262	-0.021196
C78	C	1.070355	0.312072	0.312137
C79	C	0.724077	-0.354563	-0.354516
C80	C	1.057410	-0.021229	-0.021182
C81	C	1.390744	0.312104	0.312151
C82	C	1.063429	-0.545777	-0.354479
C83	C	1.396762	-0.212443	-0.021145
C84	C	1.730096	0.120890	0.312188
C85	C	1.063463	-0.627575	-0.354488
C86	C	1.396796	-0.294242	-0.021155
C87	C	1.730130	0.039091	0.312179
C88	C	1.110632	-0.815763	-0.307509
C89	C	1.443965	-0.482430	0.025825
C90	C	1.777298	-0.149096	0.359158
C91	C	1.110665	-0.892622	-0.307526
C92	C	1.443998	-0.559288	0.025807
C93	C	1.777331	-0.225955	0.359140
C94	C	1.016476	-0.892625	-0.401572
C95	C	1.349809	-0.559292	-0.068239
C96	C	1.683143	-0.225959	0.265095
C97	C	1.016447	-0.815768	-0.401557
C98	C	1.349781	-0.482435	-0.068224
C99	C	1.683114	-0.149101	0.265109
C100	C	1.063524	-0.777339	-0.354522
C101	C	1.396857	-0.444006	-0.021188
C102	C	1.730191	-0.110672	0.312145
C103	C	1.063586	-0.931055	-0.354554
C104	C	1.396919	-0.597722	-0.021221
C105	C	1.730252	-0.264388	0.312113
C106	C	1.063621	-1.014389	-0.354574
C107	C	1.396954	-0.681055	-0.021240
C108	C	1.730288	-0.347722	0.312093
C109	C	1.063490	-0.694000	-0.354503
C110	C	1.396823	-0.360667	-0.021169
C111	C	1.730157	-0.027333	0.312164
C112	C	1.255460	-0.354593	-0.354527
C113	C	1.588793	-0.021260	-0.021194
C114	C	1.922126	0.312073	0.312139
C115	C	1.337259	-0.354603	-0.354533
C116	C	1.670592	-0.021270	-0.021200
C117	C	2.003925	0.312063	0.312134
C118	C	1.063552	-0.354520	-0.546467
C119	C	1.396885	-0.021186	-0.213134
C120	C	1.730218	0.312147	0.120200
C121	C	1.063571	-0.354498	-0.628266
C122	C	1.396904	-0.021165	-0.294933
C123	C	1.730237	0.312169	0.038401
C124	C	1.063605	-0.162617	-0.354566
C125	C	1.396938	0.170716	-0.021232
C126	C	1.730271	0.504049	0.312101
C127	C	1.063647	-0.080818	-0.354588
C128	C	1.396980	0.252515	-0.021254
C129	C	1.730313	0.585848	0.312079
C130	C	1.110681	-0.307390	-0.816477
C131	C	1.444014	0.025943	-0.483144
C132	C	1.777348	0.359276	-0.149810
C133	C	1.110690	-0.307369	-0.893336
C134	C	1.444023	0.025964	-0.560002
C135	C	1.777356	0.359298	-0.226669
C136	C	1.016513	-0.401492	-0.893293
C137	C	1.349846	-0.068158	-0.559959
C138	C	1.683179	0.265175	-0.226626
C139	C	1.016501	-0.401509	-0.816435
C140	C	1.349834	-0.068175	-0.483102
C141	C	1.683167	0.265158	-0.149769
C142	C	1.063589	-0.354459	-0.778029
C143	C	1.396922	-0.021126	-0.444696
C144	C	1.730256	0.312207	-0.111363
C145	C	1.063610	-0.354421	-0.931746
C146	C	1.396943	-0.021087	-0.598412
C147	C	1.730276	0.312246	-0.265079
C148	C	1.063619	-0.354398	-1.015079
C149	C	1.396952	-0.021064	-0.681746
C150	C	1.730286	0.312269	-0.348413
C151	C	1.063579	-0.354481	-0.694690
C152	C	1.396912	-0.021148	-0.361357
C153	C	1.730246	0.312186	-0.028024
C154	C	1.063504	-0.354568	-0.163308
C155	C	1.396838	-0.021234	0.170026
C156	C	1.730171	0.312099	0.503359
C157	C	1.063628	-0.354382	-0.081509
C158	C	1.396961	-0.021049	0.251824
C159	C	1.730295	0.312285	0.585157
H160	H	0.633651	-0.269291	-0.440062
H161	H	0.966984	0.064042	-0.106729
H162	H	1.300318	0.397375	0.226605
H163	H	1.149035	-0.269039	-0.924636
H164	H	1.482369	0.064294	-0.591303
H165	H	1.815702	0.397627	-0.257970
C166	C	1.162473	-0.934889	-0.255805
C167	C	1.495807	-0.601555	0.077528
C168	C	1.829140	-0.268222	0.410861
H169	H	1.155754	-0.986166	-0.262552
H170	H	1.489087	-0.652833	0.070781
H171	H	1.822420	-0.319500	0.404115
H172	H	1.151722	-0.922335	-0.206349
H173	H	1.485055	-0.589002	0.126985
H174	H	1.818389	-0.255668	0.460318
H175	H	1.211913	-0.922248	-0.266616
H176	H	1.545247	-0.588915	0.066717
H177	H	1.878580	-0.255581	0.400051
H178	H	0.978148	-0.439837	-0.785130
H179	H	1.311481	-0.106504	-0.451797
H180	H	1.644814	0.226829	-0.118464
H181	H	0.978146	-0.923924	-0.439866
H182	H	1.311480	-0.590590	-0.106533
H183	H	1.644813	-0.257257	0.226801
C184	C	0.964724	-0.453249	-0.935538
C185	C	1.298058	-0.119915	-0.602205
C186	C	1.631391	0.213418	-0.268871
H187	H	0.936672	-0.481279	-0.901630
H188	H	1.270005	-0.147946	-0.568297
H189	H	1.603338	0.185387	-0.234963
H190	H	0.992866	-0.485310	-0.965514
H191	H	1.326199	-0.151976	-0.632180
H192	H	1.659532	0.181357	-0.298847
H193	H	0.932674	-0.425084	-0.965524
H194	H	1.266007	-0.091751	-0.632190
H195	H	1.599340	0.241582	-0.298857
C196	C	0.483250	-0.255881	-0.453541
C197	C	0.816583	0.077453	-0.120207
C198	C	1.149917	0.410786	0.213126
H199	H	0.517164	-0.227889	-0.481624
H200	H	0.850497	0.105444	-0.148291
H201	H	1.183830	0.438778	0.185042
H202	H	0.453266	-0.223782	-0.425452
H203	H	0.786599	0.109552	-0.092119
H204	H	1.119932	0.442885	0.241215
H205	H	0.453273	-0.284083	-0.485559
H206	H	0.786607	0.049250	-0.152226
H207	H	1.119940	0.382584	0.181108
H208	H	0.494103	-0.439864	-0.268982
H209	H	0.827436	-0.106530	0.064351
H210	H	1.160769	0.226803	0.397685
H211	H	0.633544	-0.439854	-0.268967
H212	H	0.966878	-0.106520	0.064367
H213	H	1.300211	0.226813	0.397700
H214	H	1.148966	-0.784476	-0.269210
H215	H	1.482299	-0.451142	0.064123
H216	H	1.815632	-0.117809	0.397456
H217	H	0.978086	-0.784481	-0.439845
H218	H	1.311420	-0.451148	-0.106511
H219	H	1.644753	-0.117814	0.226822
C220	C	1.162466	-0.255629	-0.774233
C221	C	1.495800	0.077704	-0.440900
C222	C	1.829133	0.411037	-0.107566
H223	H	1.190507	-0.227588	-0.808142
H224	H	1.523841	0.105745	-0.474808
H225	H	1.857174	0.439079	-0.141475
H226	H	1.194516	-0.283784	-0.744244
H227	H	1.527850	0.049549	-0.410911
H228	H	1.861183	0.382883	-0.077578
H229	H	1.134316	-0.223567	-0.744260
H230	H	1.467649	0.109766	-0.410927
H231	H	1.800983	0.443100	-0.077593
