data_functionalizedCrystal
_audit_creation_method	'MofGen! by Chris Wilmer'
_symmetry_space_group_name_H-M	'P1'
_symmetry_Int_Tables_number	1
_symmetry_cell_setting	triclinic
loop_
_symmetry_equiv_pos_as_xyz
  x,y,z
_cell_length_a	13.897448
_cell_length_b	10.686220
_cell_length_c	10.686551
_cell_angle_alpha	90.308082
_cell_angle_beta	94.407384
_cell_angle_gamma	85.600540
loop_
_atom_site_label
_atom_site_type_symbol
_atom_site_fract_x
_atom_site_fract_y
_atom_site_fract_z
Zn1	Zn	-0.235165	-1.972272	0.562377
Zn2	Zn	0.098169	-1.638939	0.895710
Zn3	Zn	0.431502	-1.305606	1.229044
Zn4	Zn	-0.409754	-1.956032	0.352612
Zn5	Zn	-0.076420	-1.622698	0.685945
Zn6	Zn	0.256913	-1.289365	1.019278
Zn7	Zn	-0.259840	-1.746389	0.368693
Zn8	Zn	0.073493	-1.413056	0.702027
Zn9	Zn	0.406827	-1.079722	1.035360
Zn10	Zn	-0.407799	-1.762462	0.578389
Zn11	Zn	-0.074466	-1.429128	0.911723
Zn12	Zn	0.258868	-1.095795	1.245056
O13	O	-0.328139	-1.859289	0.465518
O14	O	0.005194	-1.525955	0.798851
O15	O	0.338527	-1.192622	1.132184
O16	O	-0.248816	-2.145660	0.521120
O17	O	0.084518	-1.812327	0.854453
O18	O	0.417851	-1.478994	1.187786
O19	O	-0.401012	-1.914699	0.179199
O20	O	-0.067679	-1.581365	0.512532
O21	O	0.265655	-1.248032	0.845866
O22	O	-0.121579	-1.776423	0.394415
O23	O	0.211754	-1.443090	0.727748
O24	O	0.545087	-1.109757	1.061082
O25	O	-0.377086	-2.133728	0.367006
O26	O	-0.043752	-1.800395	0.700339
O27	O	0.289581	-1.467062	1.033672
O28	O	-0.103450	-1.942379	0.536713
O29	O	0.229883	-1.609045	0.870047
O30	O	0.563216	-1.275712	1.203380
O31	O	-0.290871	-1.760675	0.191014
O32	O	0.042462	-1.427342	0.524348
O33	O	0.375796	-1.094009	0.857681
O34	O	-0.288976	-1.572979	0.409942
O35	O	0.044358	-1.239645	0.743275
O36	O	0.377691	-0.906312	1.076608
O37	O	-0.373754	-1.803817	0.751811
O38	O	-0.040421	-1.470484	1.085144
O39	O	0.292913	-1.137150	1.418478
O40	O	-0.397681	-1.584787	0.564004
O41	O	-0.064347	-1.251454	0.897338
O42	O	0.268986	-0.918121	1.230671
O43	O	-0.246920	-1.957964	0.740047
O44	O	0.086413	-1.624630	1.073380
O45	O	0.419746	-1.291297	1.406714
O46	O	-0.544482	-1.930284	0.382532
O47	O	-0.211149	-1.596951	0.715866
O48	O	0.122185	-1.263617	1.049199
O49	O	-0.543046	-1.788069	0.548410
O50	O	-0.209712	-1.454736	0.881744
O51	O	0.123621	-1.121402	1.215077
C52	C	-0.578761	-1.859194	0.465489
C53	C	-0.245428	-1.525861	0.798822
C54	C	0.087906	-1.192528	1.132155
C55	C	-0.685969	-1.859272	0.465509
C56	C	-0.352636	-1.525939	0.798842
C57	C	-0.019302	-1.192605	1.132176
C58	C	-0.345794	-1.533367	0.490456
C59	C	-0.012461	-1.200033	0.823790
C60	C	0.320872	-0.866700	1.157123
C61	C	-0.353368	-1.393938	0.501155
C62	C	-0.020035	-1.060605	0.834488
C63	C	0.313298	-0.727272	1.167822
C64	C	-0.307367	-1.884495	0.792719
C65	C	0.025967	-1.551161	1.126052
C66	C	0.359300	-1.217828	1.459385
C67	C	-0.298514	-1.895236	0.932152
C68	C	0.034819	-1.561903	1.265486
C69	C	0.368152	-1.228569	1.598819
C70	C	-0.882252	-1.859410	0.465578
C71	C	-0.548919	-1.526076	0.798911
C72	C	-0.215585	-1.192743	1.132244
C73	C	-0.773026	-1.859330	0.465544
C74	C	-0.439693	-1.525997	0.798877
C75	C	-0.106360	-1.192663	1.132210
C76	C	-0.076535	-1.859420	0.465572
C77	C	0.256798	-1.526086	0.798905
C78	C	0.590131	-1.192753	1.132239
C79	C	0.030683	-1.859475	0.465595
C80	C	0.364016	-1.526142	0.798928
C81	C	0.697350	-1.192809	1.132262
C82	C	-0.310416	-2.186483	0.440483
C83	C	0.022917	-1.853150	0.773816
C84	C	0.356250	-1.519817	1.107149
C85	C	-0.302864	-2.325914	0.429814
C86	C	0.030470	-1.992581	0.763147
C87	C	0.363803	-1.659247	1.096481
C88	C	-0.348758	-1.834253	0.139584
C89	C	-0.015424	-1.500919	0.472917
C90	C	0.317909	-1.167586	0.806251
C91	C	-0.357325	-1.823755	0.000133
C92	C	-0.023992	-1.490421	0.333466
C93	C	0.309342	-1.157088	0.666799
H94	H	-0.253831	-1.374343	0.360550
H95	H	0.079502	-1.041009	0.693884
H96	H	0.412836	-0.707676	1.027217
H97	H	-0.241392	-1.964662	0.980628
H98	H	0.091941	-1.631329	1.313961
H99	H	0.425275	-1.297995	1.647295
C100	C	-0.418669	-1.329139	0.593484
C101	C	-0.085336	-0.995806	0.926817
C102	C	0.247997	-0.662472	1.260151
C103	C	-0.413434	-1.199092	0.586127
C104	C	-0.080101	-0.865758	0.919460
C105	C	0.253233	-0.532425	1.252794
C106	C	-0.473564	-1.139360	0.671171
C107	C	-0.140231	-0.806026	1.004505
C108	C	0.193102	-0.472693	1.337838
H109	H	-0.483525	-1.348968	0.573449
H110	H	-0.150192	-1.015635	0.906782
H111	H	0.183141	-0.682302	1.240115
H112	H	-0.398139	-1.356995	0.676210
H113	H	-0.064806	-1.023662	1.009544
H114	H	0.268527	-0.690328	1.342877
H115	H	-0.433969	-1.171246	0.503419
H116	H	-0.100636	-0.837913	0.836753
H117	H	0.232697	-0.504579	1.170086
H118	H	-0.348593	-1.179226	0.606174
H119	H	-0.015259	-0.845893	0.939508
H120	H	0.318074	-0.512559	1.272841
H121	H	-0.453034	-1.167216	0.753898
H122	H	-0.119701	-0.833882	1.087231
H123	H	0.213632	-0.500549	1.420564
H124	H	-0.538416	-1.159198	0.651129
H125	H	-0.205083	-0.825865	0.984462
H126	H	0.128251	-0.492532	1.317795
H127	H	-0.470014	-1.051118	0.666200
H128	H	-0.136680	-0.717784	0.999533
H129	H	0.196653	-0.384451	1.332866
C130	C	-0.433549	-1.731385	0.935332
C131	C	-0.100216	-1.398052	1.268666
C132	C	0.233117	-1.064719	1.601999
C133	C	-0.496232	-1.796656	0.854635
C134	C	-0.162898	-1.463323	1.187968
C135	C	0.170435	-1.129989	1.521302
C136	C	-0.566454	-1.711606	0.794897
C137	C	-0.233121	-1.378273	1.128230
C138	C	0.100212	-1.044940	1.461564
H139	H	-0.469363	-1.687938	0.996529
H140	H	-0.136030	-1.354605	1.329862
H141	H	0.197303	-1.021271	1.663195
H142	H	-0.402846	-1.672872	0.888330
H143	H	-0.069513	-1.339538	1.221663
H144	H	0.263821	-1.006205	1.554996
H145	H	-0.526933	-1.855147	0.901635
H146	H	-0.193599	-1.521814	1.234968
H147	H	0.139734	-1.188481	1.568301
H148	H	-0.460446	-1.840099	0.793415
H149	H	-0.127113	-1.506766	1.126749
H150	H	0.206221	-1.173432	1.460082
H151	H	-0.535751	-1.653093	0.747895
H152	H	-0.202418	-1.319760	1.081228
H153	H	0.130916	-0.986426	1.414561
H154	H	-0.602261	-1.668164	0.856103
H155	H	-0.268928	-1.334831	1.189436
H156	H	0.064406	-1.001497	1.522769
H157	H	-0.608987	-1.755879	0.740129
H158	H	-0.275654	-1.422546	1.073462
H159	H	0.057679	-1.089212	1.406796
