data_functionalizedCrystal
_audit_creation_method	'MofGen! by Chris Wilmer'
_symmetry_space_group_name_H-M	'P1'
_symmetry_Int_Tables_number	1
_symmetry_cell_setting	triclinic
loop_
_symmetry_equiv_pos_as_xyz
  x,y,z
_cell_length_a	27.732064
_cell_length_b	27.732048
_cell_length_c	14.048226
_cell_angle_alpha	89.988614
_cell_angle_beta	90.001165
_cell_angle_gamma	82.646040
loop_
_atom_site_label
_atom_site_type_symbol
_atom_site_fract_x
_atom_site_fract_y
_atom_site_fract_z
O1	O	0.640923	0.057556	-0.079001
O2	O	0.500131	0.066293	-0.079042
O3	O	0.574900	-0.008472	-0.079002
O4	O	0.566154	0.132321	-0.079041
O5	O	0.574891	-0.008476	0.079319
O6	O	0.500122	0.066289	0.079280
O7	O	0.640914	0.057552	0.079320
Zn8	Zn	0.570517	0.061920	0.104437
Zn9	Zn	0.570528	0.061925	-0.104158
O10	O	0.566145	0.132317	0.079281
C11	C	0.482120	0.066106	0.000114
C12	C	0.428465	0.065551	0.000100
C13	C	0.051392	0.017583	0.000167
C14	C	0.253053	0.019630	0.000142
O15	O	0.284305	-0.017591	0.000187
N16	N	0.272180	0.063964	0.000125
C17	C	0.240889	0.107790	0.000121
O18	O	0.261785	0.145546	0.000117
C19	C	0.039230	0.105743	0.000153
C20	C	0.020105	0.061406	0.000160
C21	C	0.032267	-0.026750	0.000175
C22	C	-0.018145	-0.027261	0.000176
C23	C	-0.049432	0.016561	0.000169
C24	C	-0.030307	0.060895	0.000161
C25	C	0.007940	0.149568	0.000156
C26	C	-0.042478	0.149053	0.000167
C27	C	-0.061602	0.104716	0.000174
C28	C	-0.112006	0.104206	0.000156
N29	N	-0.131134	0.059872	0.000172
C30	C	-0.099846	0.016049	0.000179
C31	C	0.346763	0.108861	0.000103
C32	C	0.397178	0.109373	0.000093
C33	C	0.409338	0.021213	0.000115
C34	C	0.358923	0.020701	0.000118
C35	C	0.327636	0.064527	0.000119
C36	C	-0.205716	0.014979	0.000181
C37	C	-0.256133	0.014472	0.000178
C38	C	-0.268289	0.102632	0.000161
C39	C	-0.217876	0.103140	0.000158
C40	C	-0.186590	0.059309	0.000172
O41	O	-0.143287	0.141407	0.000121
O42	O	-0.120752	-0.021701	0.000205
C43	C	0.101805	0.018094	0.000166
C44	C	0.120930	0.062428	0.000158
C45	C	0.089642	0.106250	0.000151
C46	C	0.171344	0.062940	0.000148
C47	C	0.202631	0.019117	0.000155
C48	C	0.183504	-0.025217	0.000171
C49	C	0.133092	-0.025728	0.000173
C50	C	0.108770	0.150585	0.000135
C51	C	0.159183	0.151092	0.000133
C52	C	0.190470	0.107270	0.000139
C53	C	0.574712	-0.026481	0.000161
C54	C	0.574159	-0.080136	0.000169
C55	C	0.614862	-0.418948	0.000132
C56	C	0.612811	-0.620608	0.000118
O57	O	0.650032	-0.651862	0.000087
N58	N	0.568476	-0.639735	0.000106
C59	C	0.524651	-0.608442	0.000092
O60	O	0.486895	-0.629338	0.000071
C61	C	0.526703	-0.406784	0.000099
C62	C	0.571040	-0.387660	0.000120
C63	C	0.659196	-0.399824	0.000152
C64	C	0.659709	-0.349412	0.000161
C65	C	0.615887	-0.318124	0.000149
C66	C	0.571553	-0.337248	0.000129
C67	C	0.482878	-0.375493	0.000077
C68	C	0.483395	-0.325075	0.000076
C69	C	0.527733	-0.305952	0.000098
C70	C	0.528243	-0.255548	0.000126
N71	N	0.572578	-0.236422	0.000137
C72	C	0.616400	-0.267710	0.000149
C73	C	0.523577	-0.714317	0.000090
C74	C	0.523064	-0.764731	0.000090
C75	C	0.611225	-0.776893	0.000114
C76	C	0.611737	-0.726478	0.000121
C77	C	0.567912	-0.695190	0.000102
C78	C	0.617472	-0.161841	0.000168
C79	C	0.617981	-0.111424	0.000181
C80	C	0.529821	-0.099266	0.000151
C81	C	0.529312	-0.149679	0.000144
C82	C	0.573142	-0.180965	0.000149
O83	O	0.491043	-0.224267	0.000146
O84	O	0.654151	-0.246805	0.000148
C85	C	0.614350	-0.469360	0.000123
C86	C	0.570016	-0.488484	0.000103
C87	C	0.526194	-0.457196	0.000091
C88	C	0.569503	-0.538899	0.000103
C89	C	0.613325	-0.570187	0.000115
C90	C	0.657660	-0.551060	0.000126
C91	C	0.658172	-0.500648	0.000135
C92	C	0.481859	-0.476323	0.000079
C93	C	0.481351	-0.526735	0.000072
C94	C	0.525172	-0.558023	0.000083
C95	C	0.658925	0.057739	0.000163
C96	C	0.712580	0.058295	0.000171
C97	C	0.566333	0.150326	0.000115
C98	C	0.566886	0.203981	0.000101
N99	N	0.570512	0.061916	0.246798
N100	N	0.570537	0.061926	-0.246519
C101	C	0.603630	0.028823	0.296633
C102	C	0.603633	0.028823	0.396291
C103	C	0.570521	0.061918	0.446111
C104	C	0.537399	0.095012	0.396269
C105	C	0.537394	0.095009	0.296613
C106	C	0.537413	0.095015	0.603983
C107	C	0.537419	0.095018	0.703646
C108	C	0.603652	0.028829	0.703661
C109	C	0.603647	0.028826	0.604005
C110	C	0.570526	0.061921	0.554170
H111	H	0.412744	0.145477	0.000074
H112	H	0.510455	0.121967	0.744204
H113	H	-0.271701	-0.021634	0.000181
H114	H	0.083300	0.186271	0.000131
H115	H	0.446774	-0.391054	0.000054
H116	H	0.510441	0.121963	0.563410
H117	H	-0.067950	0.184742	0.000172
H118	H	0.445243	-0.542300	0.000062
H119	H	0.647841	-0.710911	0.000138
H120	H	0.446173	-0.450852	0.000067
H121	H	0.321293	0.144551	0.000102
H122	H	0.434821	-0.014469	0.000117
H123	H	0.343355	-0.015402	0.000124
H124	H	0.023502	0.185672	0.000147
H125	H	0.654087	-0.095857	0.000201
H126	H	0.630596	0.001875	0.256076
H127	H	-0.180248	-0.020712	0.000191
H128	H	-0.033711	-0.063365	0.000185
H129	H	0.510436	0.121957	0.436838
H130	H	0.694883	-0.425295	0.000159
H131	H	0.057737	-0.062438	0.000183
H132	H	-0.202304	0.139243	0.000152
H133	H	0.695813	-0.333847	0.000175
H134	H	0.646906	-0.802377	0.000125
H135	H	-0.293772	0.138311	0.000150
H136	H	0.630620	0.001882	0.744243
H137	H	0.486960	-0.780296	0.000089
H138	H	0.447706	-0.299603	0.000059
H139	H	0.630600	0.001876	0.436867
H140	H	0.510426	0.121956	0.256037
H141	H	0.630612	0.001880	0.563442
H142	H	0.487888	-0.688846	0.000074
H143	H	0.493209	-0.165249	0.000152
H144	H	0.693341	-0.576544	0.000140
H145	H	0.117526	-0.061832	0.000178
H146	H	0.694276	-0.485083	0.000152
H147	H	0.494142	-0.073782	0.000145
H148	H	0.208987	-0.060899	0.000171
H149	H	0.653163	-0.187309	0.000169
H150	H	0.174748	0.187200	0.000120
