data_functionalizedCrystal
_audit_creation_method	'MofGen! by Chris Wilmer'
_symmetry_space_group_name_H-M	'P1'
_symmetry_Int_Tables_number	1
_symmetry_cell_setting	triclinic
loop_
_symmetry_equiv_pos_as_xyz
  x,y,z
_cell_length_a	21.395364
_cell_length_b	18.215405
_cell_length_c	21.395355
_cell_angle_alpha	89.983159
_cell_angle_beta	89.975484
_cell_angle_gamma	90.018496
loop_
_atom_site_label
_atom_site_type_symbol
_atom_site_fract_x
_atom_site_fract_y
_atom_site_fract_z
Zn1	Zn	0.957894	-0.293153	-0.354268
Zn2	Zn	1.207894	-0.043153	-0.104268
Zn3	Zn	1.457894	0.206847	0.145732
Zn4	Zn	1.707894	0.456847	0.395732
Zn5	Zn	0.957811	-0.416201	-0.249494
Zn6	Zn	1.207811	-0.166201	0.000506
Zn7	Zn	1.457811	0.083799	0.250506
Zn8	Zn	1.707811	0.333799	0.500506
Zn9	Zn	0.853109	-0.293144	-0.249505
Zn10	Zn	1.103109	-0.043144	0.000495
Zn11	Zn	1.353109	0.206856	0.250495
Zn12	Zn	1.603109	0.456856	0.500495
Zn13	Zn	0.853093	-0.416173	-0.354234
Zn14	Zn	1.103093	-0.166173	-0.104234
Zn15	Zn	1.353093	0.083827	0.145766
Zn16	Zn	1.603093	0.333827	0.395766
O17	O	0.905476	-0.354668	-0.301875
O18	O	1.155476	-0.104668	-0.051875
O19	O	1.405476	0.145332	0.198125
O20	O	1.655476	0.395332	0.448125
O21	O	1.045561	-0.309491	-0.340379
O22	O	1.295561	-0.059491	-0.090379
O23	O	1.545561	0.190509	0.159621
O24	O	1.795561	0.440509	0.409621
O25	O	0.943894	-0.399885	-0.161817
O26	O	1.193894	-0.149885	0.088183
O27	O	1.443894	0.100115	0.338183
O28	O	1.693894	0.350115	0.588183
O29	O	0.867050	-0.190161	-0.263421
O30	O	1.117050	0.059839	-0.013421
O31	O	1.367050	0.309839	0.236579
O32	O	1.617050	0.559839	0.486579
O33	O	1.045500	-0.399894	-0.263402
O34	O	1.295500	-0.149894	-0.013402
O35	O	1.545500	0.100106	0.236598
O36	O	1.795500	0.350106	0.486598
O37	O	0.944035	-0.190167	-0.340390
O38	O	1.194035	0.059833	-0.090390
O39	O	1.444035	0.309833	0.159610
O40	O	1.694035	0.559833	0.409610
O41	O	0.866970	-0.309476	-0.161825
O42	O	1.116970	-0.059476	0.088175
O43	O	1.366970	0.190524	0.338175
O44	O	1.616970	0.440524	0.588175
O45	O	0.765429	-0.309448	-0.263388
O46	O	1.015429	-0.059448	-0.013388
O47	O	1.265429	0.190552	0.236612
O48	O	1.515429	0.440552	0.486612
O49	O	0.867023	-0.399846	-0.441916
O50	O	1.117023	-0.149846	-0.191916
O51	O	1.367023	0.100154	0.058084
O52	O	1.617023	0.350154	0.308084
O53	O	0.765417	-0.399837	-0.340332
O54	O	1.015417	-0.149837	-0.090332
O55	O	1.265417	0.100163	0.159668
O56	O	1.515417	0.350163	0.409668
O57	O	0.944020	-0.309464	-0.441941
O58	O	1.194020	-0.059464	-0.191941
O59	O	1.444020	0.190536	0.058059
O60	O	1.694020	0.440536	0.308059
O61	O	0.943878	-0.519181	-0.263369
O62	O	1.193878	-0.269181	-0.013369
O63	O	1.443878	-0.019181	0.236631
O64	O	1.693878	0.230819	0.486631
O65	O	0.866942	-0.519161	-0.340321
O66	O	1.116942	-0.269161	-0.090321
O67	O	1.366942	-0.019161	0.159679
O68	O	1.616942	0.230839	0.409679
C69	C	0.742689	-0.354639	-0.301858
C70	C	0.992689	-0.104639	-0.051858
C71	C	1.242689	0.145361	0.198142
C72	C	1.492689	0.395361	0.448142
C73	C	0.673048	-0.354645	-0.301865
C74	C	0.923048	-0.104645	-0.051865
C75	C	1.173048	0.145355	0.198135
C76	C	1.423048	0.395355	0.448135
C77	C	0.905416	-0.545874	-0.301854
C78	C	1.155416	-0.295874	-0.051854
C79	C	1.405416	-0.045874	0.198146
C80	C	1.655416	0.204126	0.448146
C81	C	0.905448	-0.627673	-0.301865
C82	C	1.155448	-0.377673	-0.051865
C83	C	1.405448	-0.127673	0.198135
C84	C	1.655448	0.122327	0.448135
C85	C	0.171283	-0.307706	-0.342031
C86	C	0.421283	-0.057706	-0.092031
C87	C	0.671283	0.192294	0.157969
C88	C	0.921283	0.442294	0.407969
C89	C	0.236718	-0.307700	-0.342031
C90	C	0.486718	-0.057700	-0.092031
C91	C	0.736718	0.192300	0.157969
C92	C	0.986718	0.442300	0.407969
C93	C	0.269409	-0.354690	-0.301889
C94	C	0.519409	-0.104690	-0.051889
C95	C	0.769409	0.145310	0.198111
C96	C	1.019409	0.395310	0.448111
C97	C	0.236660	-0.401702	-0.261756
C98	C	0.486660	-0.151702	-0.011756
C99	C	0.736660	0.098298	0.238244
C100	C	0.986660	0.348298	0.488244
C101	C	0.171226	-0.401711	-0.261761
C102	C	0.421226	-0.151711	-0.011761
C103	C	0.671226	0.098289	0.238239
C104	C	0.921226	0.348289	0.488239
C105	C	0.373046	-0.360389	-0.245422
C106	C	0.623046	-0.110389	0.004578
C107	C	0.873046	0.139611	0.254578
C108	C	1.123046	0.389611	0.504578
C109	C	0.438479	-0.360374	-0.245415
C110	C	0.688479	-0.110374	0.004585
C111	C	0.938479	0.139626	0.254585
C112	C	1.188479	0.389626	0.504585
C113	C	0.471230	-0.354666	-0.301872
C114	C	0.721230	-0.104666	-0.051872
C115	C	0.971230	0.145334	0.198128
C116	C	1.221230	0.395334	0.448128
C117	C	0.438540	-0.348956	-0.358337
C118	C	0.688540	-0.098956	-0.108337
C119	C	0.938540	0.151044	0.141663
C120	C	1.188540	0.401044	0.391663
C121	C	0.373105	-0.348965	-0.358343
C122	C	0.623105	-0.098965	-0.108343
C123	C	0.873105	0.151035	0.141657
C124	C	1.123105	0.401035	0.391657
C125	C	0.340362	-0.354686	-0.301879
C126	C	0.590362	-0.104686	-0.051879
C127	C	0.840362	0.145314	0.198121
C128	C	1.090362	0.395314	0.448121
C129	C	0.574924	-0.307654	-0.342006
C130	C	0.824924	-0.057654	-0.092006
C131	C	1.074924	0.192346	0.157994
C132	C	1.324924	0.442346	0.407994
C133	C	0.640361	-0.307654	-0.342007
C134	C	0.890361	-0.057654	-0.092007
C135	C	1.140361	0.192346	0.157993
C136	C	1.390361	0.442346	0.407993
C137	C	0.640301	-0.401652	-0.261726
C138	C	0.890301	-0.151652	-0.011726
C139	C	1.140301	0.098348	0.238274
C140	C	1.390301	0.348348	0.488274
C141	C	0.574866	-0.401656	-0.261730
C142	C	0.824866	-0.151656	-0.011730
C143	C	1.074866	0.098344	0.238270
C144	C	1.324866	0.348344	0.488270
C145	C	0.542181	-0.354653	-0.301870
C146	C	0.792181	-0.104653	-0.051870
C147	C	1.042181	0.145347	0.198130
C148	C	1.292181	0.395347	0.448130
C149	C	0.945553	-0.815809	-0.341997
C150	C	1.195553	-0.565809	-0.091997
C151	C	1.445553	-0.315809	0.158003
C152	C	1.695553	-0.065809	0.408003
C153	C	0.945576	-0.892668	-0.342009
C154	C	1.195576	-0.642668	-0.092009
C155	C	1.445576	-0.392668	0.157991
C156	C	1.695576	-0.142668	0.407991
C157	C	0.865477	-0.892774	-0.261792
C158	C	1.115477	-0.642774	-0.011792
C159	C	1.365477	-0.392774	0.238208
C160	C	1.615477	-0.142774	0.488208
C161	C	0.865452	-0.815917	-0.261784
C162	C	1.115452	-0.565917	-0.011784
C163	C	1.365452	-0.315917	0.238216
C164	C	1.615452	-0.065917	0.488216
C165	C	0.905493	-0.777436	-0.301885
C166	C	1.155493	-0.527436	-0.051885
C167	C	1.405493	-0.277436	0.198115
C168	C	1.655493	-0.027436	0.448115
C169	C	0.905541	-0.931152	-0.301905
C170	C	1.155541	-0.681152	-0.051905
C171	C	1.405541	-0.431152	0.198095
C172	C	1.655541	-0.181152	0.448095
C173	C	0.905566	-1.014486	-0.301918
C174	C	1.155566	-0.764486	-0.051918
C175	C	1.405566	-0.514486	0.198082
C176	C	1.655566	-0.264486	0.448082
C177	C	0.905468	-0.694097	-0.301874
C178	C	1.155468	-0.444097	-0.051874
C179	C	1.405468	-0.194097	0.198126
C180	C	1.655468	0.055903	0.448126
C181	C	1.068900	-0.354696	-0.301893
C182	C	1.318900	-0.104696	-0.051893
C183	C	1.568900	0.145304	0.198107
C184	C	1.818900	0.395304	0.448107
C185	C	1.138541	-0.354709	-0.301901
C186	C	1.388541	-0.104709	-0.051901
C187	C	1.638541	0.145291	0.198099
C188	C	1.888541	0.395291	0.448099
C189	C	0.905528	-0.354653	-0.465298
C190	C	1.155528	-0.104653	-0.215298
C191	C	1.405528	0.145347	0.034702
C192	C	1.655528	0.395347	0.284702
C193	C	0.905551	-0.354646	-0.534940
C194	C	1.155551	-0.104646	-0.284940
C195	C	1.405551	0.145354	-0.034940
C196	C	1.655551	0.395354	0.215060
C197	C	0.905554	-0.162715	-0.301911
C198	C	1.155554	0.087285	-0.051911
C199	C	1.405554	0.337285	0.198089
C200	C	1.655554	0.587285	0.448089
C201	C	0.905587	-0.080916	-0.301926
C202	C	1.155587	0.169084	-0.051926
C203	C	1.405587	0.419084	0.198074
C204	C	1.655587	0.669084	0.448074
C205	C	0.945641	-0.307582	-0.567667
C206	C	1.195641	-0.057582	-0.317667
C207	C	1.445641	0.192418	-0.067667
C208	C	1.695641	0.442418	0.182333
C209	C	0.945640	-0.307551	-0.633102
C210	C	1.195640	-0.057551	-0.383102
C211	C	1.445640	0.192449	-0.133102
C212	C	1.695640	0.442449	0.116898
C213	C	0.905556	-0.354596	-0.665808
C214	C	1.155556	-0.104596	-0.415808
C215	C	1.405556	0.145404	-0.165808
C216	C	1.655556	0.395404	0.084192
C217	C	0.865457	-0.401664	-0.633073
C218	C	1.115457	-0.151664	-0.383073
C219	C	1.365457	0.098336	-0.133073
C220	C	1.615457	0.348336	0.116927
C221	C	0.865455	-0.401689	-0.567639
C222	C	1.115455	-0.151689	-0.317639
C223	C	1.365455	0.098311	-0.067639
C224	C	1.615455	0.348311	0.182361
C225	C	0.900587	-0.420860	-0.769475
C226	C	1.150587	-0.170860	-0.519475
C227	C	1.400587	0.079140	-0.269475
C228	C	1.650587	0.329140	-0.019475
C229	C	0.900594	-0.420836	-0.834908
C230	C	1.150594	-0.170836	-0.584908
C231	C	1.400594	0.079164	-0.334908
C232	C	1.650594	0.329164	-0.084908
C233	C	0.905559	-0.354518	-0.867629
C234	C	1.155559	-0.104518	-0.617629
C235	C	1.405559	0.145482	-0.367629
C236	C	1.655559	0.395482	-0.117629
C237	C	0.910531	-0.288223	-0.834909
C238	C	1.160531	-0.038223	-0.584909
C239	C	1.410531	0.211777	-0.334909
C240	C	1.660531	0.461777	-0.084909
C241	C	0.910528	-0.288248	-0.769474
C242	C	1.160528	-0.038248	-0.519474
C243	C	1.410528	0.211752	-0.269474
C244	C	1.660528	0.461752	-0.019474
C245	C	0.905553	-0.354574	-0.736761
C246	C	1.155553	-0.104574	-0.486761
C247	C	1.405553	0.145426	-0.236761
C248	C	1.655553	0.395426	0.013239
C249	C	0.945651	-0.307416	-0.971309
C250	C	1.195651	-0.057416	-0.721309
C251	C	1.445651	0.192584	-0.471309
C252	C	1.695651	0.442584	-0.221309
C253	C	0.945646	-0.307383	-1.036745
C254	C	1.195646	-0.057383	-0.786745
C255	C	1.445646	0.192617	-0.536745
C256	C	1.695646	0.442617	-0.286745
C257	C	0.865466	-0.401503	-1.036715
C258	C	1.115466	-0.151503	-0.786715
C259	C	1.365466	0.098497	-0.536715
C260	C	1.615466	0.348497	-0.286715
C261	C	0.865468	-0.401529	-0.971279
C262	C	1.115468	-0.151529	-0.721279
C263	C	1.365468	0.098471	-0.471279
C264	C	1.615468	0.348471	-0.221279
C265	C	0.905564	-0.354487	-0.938580
C266	C	1.155564	-0.104487	-0.688580
C267	C	1.405564	0.145513	-0.438580
C268	C	1.655564	0.395513	-0.188580
C269	C	0.905461	-0.354629	-0.139088
C270	C	1.155461	-0.104629	0.110912
C271	C	1.405461	0.145371	0.360912
C272	C	1.655461	0.395371	0.610912
C273	C	0.905560	-0.354428	-0.069447
C274	C	1.155560	-0.104428	0.180553
C275	C	1.405560	0.145572	0.430553
C276	C	1.655560	0.395572	0.680553
H277	H	0.144675	-0.269436	-0.374719
H278	H	0.394675	-0.019436	-0.124719
H279	H	0.644675	0.230564	0.125281
H280	H	0.894675	0.480564	0.375281
H281	H	0.832818	-0.439966	-0.659706
H282	H	1.082818	-0.189966	-0.409706
H283	H	1.332818	0.060034	-0.159706
H284	H	1.582818	0.310034	0.090294
Cl285	Cl	0.130063	-0.460802	-0.211304
Cl286	Cl	0.380063	-0.210802	0.038696
Cl287	Cl	0.630063	0.039198	0.288696
Cl288	Cl	0.880063	0.289198	0.538696
Cl289	Cl	0.815051	-0.460861	-0.526494
Cl290	Cl	1.065051	-0.210861	-0.276494
Cl291	Cl	1.315051	0.039139	-0.026494
Cl292	Cl	1.565051	0.289139	0.223506
H293	H	0.263381	-0.269422	-0.374710
H294	H	0.513381	-0.019422	-0.124710
H295	H	0.763381	0.230578	0.125290
H296	H	1.013381	0.480578	0.375290
Cl297	Cl	0.332011	-0.341794	-0.429324
Cl298	Cl	0.582011	-0.091794	-0.179324
Cl299	Cl	0.832011	0.158206	0.070676
Cl300	Cl	1.082011	0.408206	0.320676
Cl301	Cl	0.995936	-0.940905	-0.392441
Cl302	Cl	1.245936	-0.690905	-0.142441
Cl303	Cl	1.495936	-0.440905	0.107559
Cl304	Cl	1.745936	-0.190905	0.357559
H305	H	0.832878	-0.924114	-0.229141
H306	H	1.082878	-0.674114	0.020859
H307	H	1.332878	-0.424114	0.270859
H308	H	1.582878	-0.174114	0.520859
H309	H	0.978296	-0.269107	-0.944684
H310	H	1.228296	-0.019107	-0.694684
H311	H	1.478296	0.230893	-0.444684
H312	H	1.728296	0.480893	-0.194684
H313	H	0.832827	-0.784671	-0.229120
H314	H	1.082827	-0.534671	0.020880
H315	H	1.332827	-0.284671	0.270880
H316	H	1.582827	-0.034671	0.520880
H317	H	0.978290	-0.269276	-0.541047
H318	H	1.228290	-0.019276	-0.291047
H319	H	1.478290	0.230724	-0.041047
H320	H	1.728290	0.480724	0.208953
H321	H	0.667018	-0.269381	-0.374690
H322	H	0.917018	-0.019381	-0.124690
H323	H	1.167018	0.230619	0.125310
H324	H	1.417018	0.480619	0.375310
Cl325	Cl	0.996031	-0.248365	-0.674254
Cl326	Cl	1.246031	0.001635	-0.424254
Cl327	Cl	1.496031	0.251635	-0.174254
Cl328	Cl	1.746031	0.501635	0.075746
H329	H	0.914575	-0.234268	-0.742836
H330	H	1.164575	0.015732	-0.492836
H331	H	1.414575	0.265732	-0.242836
H332	H	1.664575	0.515732	0.007164
H333	H	0.978157	-0.784480	-0.374652
H334	H	1.228157	-0.534480	-0.124652
H335	H	1.478157	-0.284480	0.125348
H336	H	1.728157	-0.034480	0.375348
Cl337	Cl	0.916776	-0.204846	-0.876036
Cl338	Cl	1.166776	0.045154	-0.626036
Cl339	Cl	1.416776	0.295154	-0.376036
Cl340	Cl	1.666776	0.545154	-0.126036
Cl341	Cl	0.996060	-0.248223	-1.077889
Cl342	Cl	1.246060	0.001777	-0.827889
Cl343	Cl	1.496060	0.251777	-0.577889
Cl344	Cl	1.746060	0.501777	-0.327889
Cl345	Cl	0.815067	-0.460640	-1.077824
Cl346	Cl	1.065067	-0.210640	-0.827824
Cl347	Cl	1.315067	0.039360	-0.577824
Cl348	Cl	1.565067	0.289360	-0.327824
Cl349	Cl	0.815068	-0.460702	-0.930134
Cl350	Cl	1.065068	-0.210702	-0.680134
Cl351	Cl	1.315068	0.039298	-0.430134
Cl352	Cl	1.565068	0.289298	-0.180134
H353	H	0.896550	-0.474818	-0.861544
H354	H	1.146550	-0.224818	-0.611544
H355	H	1.396550	0.025182	-0.361544
H356	H	1.646550	0.275182	-0.111544
H357	H	0.548311	-0.269382	-0.374690
H358	H	0.798311	-0.019382	-0.124690
H359	H	1.048311	0.230618	0.125310
H360	H	1.298311	0.480618	0.375310
Cl361	Cl	0.479704	-0.341769	-0.429315
Cl362	Cl	0.729704	-0.091769	-0.179315
Cl363	Cl	0.979704	0.158231	0.070685
Cl364	Cl	1.229704	0.408231	0.320685
H365	H	0.666918	-0.439918	-0.229046
H366	H	0.916918	-0.189918	0.020954
H367	H	1.166918	0.060082	0.270954
H368	H	1.416918	0.310082	0.520954
Cl369	Cl	0.533703	-0.460738	-0.211267
Cl370	Cl	0.783703	-0.210738	0.038733
Cl371	Cl	1.033703	0.039262	0.288733
Cl372	Cl	1.283703	0.289262	0.538733
H373	H	0.896377	-0.474850	-0.742840
H374	H	1.146377	-0.224850	-0.492840
H375	H	1.396377	0.025150	-0.242840
H376	H	1.646377	0.275150	0.007160
H377	H	0.465091	-0.365019	-0.199438
H378	H	0.715091	-0.115019	0.050562
H379	H	0.965091	0.134981	0.300562
H380	H	1.215091	0.384981	0.550562
Cl381	Cl	0.331881	-0.367578	-0.174442
Cl382	Cl	0.581881	-0.117578	0.075558
Cl383	Cl	0.831881	0.132422	0.325558
Cl384	Cl	1.081881	0.382422	0.575558
H385	H	0.263281	-0.439963	-0.229073
H386	H	0.513281	-0.189963	0.020927
H387	H	0.763281	0.060037	0.270927
H388	H	1.013281	0.310037	0.520927
