data_functionalizedCrystal
_audit_creation_method	'MofGen! by Chris Wilmer'
_symmetry_space_group_name_H-M	'P1'
_symmetry_Int_Tables_number	1
_symmetry_cell_setting	triclinic
loop_
_symmetry_equiv_pos_as_xyz
  x,y,z
_cell_length_a	10.685661
_cell_length_b	10.685194
_cell_length_c	12.759393
_cell_angle_alpha	94.402269
_cell_angle_beta	94.386597
_cell_angle_gamma	89.666413
loop_
_atom_site_label
_atom_site_type_symbol
_atom_site_fract_x
_atom_site_fract_y
_atom_site_fract_z
Zn1	Zn	1.879753	-0.646635	0.672497
Zn2	Zn	2.379753	-0.146635	1.172497
Zn3	Zn	1.863563	-0.856458	0.482386
Zn4	Zn	2.363563	-0.356458	0.982386
Zn5	Zn	1.669951	-0.630593	0.484489
Zn6	Zn	2.169951	-0.130593	0.984489
Zn7	Zn	1.653893	-0.840271	0.645698
Zn8	Zn	2.153893	-0.340271	1.145698
O9	O	1.766790	-0.743489	0.571267
O10	O	2.266790	-0.243489	1.071267
O11	O	2.053156	-0.687957	0.657614
O12	O	2.553156	-0.187957	1.157614
O13	O	1.837825	-0.826558	0.335637
O14	O	2.337825	-0.326558	0.835637
O15	O	1.711277	-0.457158	0.521524
O16	O	2.211277	0.042842	1.021524
O17	O	2.041262	-0.842113	0.517940
O18	O	2.541262	-0.342113	1.017940
O19	O	1.865418	-0.468944	0.659653
O20	O	2.365418	0.031056	1.159653
O21	O	1.695579	-0.660615	0.337181
O22	O	2.195579	-0.160615	0.837181
O23	O	1.492270	-0.644919	0.495538
O24	O	1.992270	-0.144919	0.995538
O25	O	1.683909	-0.814524	0.796281
O26	O	2.183909	-0.314524	1.296281
O27	O	1.480472	-0.798969	0.613977
O28	O	1.980472	-0.298969	1.113977
O29	O	1.849848	-0.672261	0.815971
O30	O	2.349848	-0.172261	1.315971
O31	O	1.822254	-1.029874	0.491954
O32	O	2.322254	-0.529874	0.991954
O33	O	1.668210	-1.017981	0.611938
O34	O	2.168210	-0.517981	1.111938
C35	C	1.440853	-0.718447	0.552078
C36	C	1.940853	-0.218447	1.052078
C37	C	1.301413	-0.707765	0.543892
C38	C	1.801413	-0.207765	1.043892
C39	C	1.741767	-1.069452	0.548835
C40	C	2.241767	-0.569452	1.048835
C41	C	1.731177	-1.208908	0.539280
C42	C	2.231177	-0.708908	1.039280
C43	C	2.094000	-0.768630	0.590532
C44	C	2.594000	-0.268630	1.090532
C45	C	2.233437	-0.779344	0.598742
C46	C	2.733437	-0.279344	1.098742
C47	C	1.766893	-0.743376	0.845315
C48	C	2.266893	-0.243376	1.345315
C49	C	1.766937	-0.743328	0.962097
C50	C	2.266937	-0.243328	1.462097
C51	C	1.791945	-0.416257	0.593812
C52	C	2.291945	0.083743	1.093812
C53	C	1.802665	-0.276810	0.603420
C54	C	2.302665	0.223190	1.103420
C55	C	1.766766	-0.743517	0.298297
C56	C	2.266766	-0.243517	0.798297
C57	C	1.766993	-0.743231	0.181553
C58	C	2.266993	-0.243231	0.681553
C59	C	1.853348	-0.669239	1.027214
C60	C	2.353348	-0.169239	1.527214
C61	C	1.853374	-0.669187	1.136944
C62	C	2.353374	-0.169187	1.636944
C63	C	1.680572	-0.817323	1.116428
C64	C	2.180572	-0.317323	1.616428
C65	C	1.680542	-0.817367	1.006701
C66	C	2.180542	-0.317367	1.506701
H67	H	1.252935	-0.638302	0.490677
H68	H	1.752935	-0.138302	0.990677
Br69	Br	1.970595	-0.568755	0.966684
Br70	Br	2.470595	-0.068755	1.466684
Br71	Br	1.970660	-0.568643	1.225314
Br72	Br	2.470660	-0.068643	1.725314
Br73	Br	1.563332	-0.917804	1.176968
Br74	Br	2.063332	-0.417804	1.676968
Br75	Br	1.918184	-1.195887	0.707143
Br76	Br	2.418184	-0.695887	1.207143
H77	H	1.661854	-1.257469	0.477057
H78	H	2.161854	-0.757469	0.977057
Br79	Br	1.563251	-0.917912	0.918319
Br80	Br	2.063251	-0.417912	1.418319
H81	H	1.281923	-0.848800	0.651970
H82	H	1.781923	-0.348800	1.151970
