data_functionalizedCrystal
_audit_creation_method	'MofGen! by Chris Wilmer'
_symmetry_space_group_name_H-M	'P1'
_symmetry_Int_Tables_number	1
_symmetry_cell_setting	triclinic
loop_
_symmetry_equiv_pos_as_xyz
  x,y,z
_cell_length_a	10.540539
_cell_length_b	6.394984
_cell_length_c	9.016244
_cell_angle_alpha	90.000600
_cell_angle_beta	90.005301
_cell_angle_gamma	85.510422
loop_
_atom_site_label
_atom_site_type_symbol
_atom_site_fract_x
_atom_site_fract_y
_atom_site_fract_z
O1	O	1.688978	0.294423	0.123265
O2	O	1.319855	0.322164	0.123283
O3	O	1.509660	0.004306	0.123269
O4	O	1.499173	0.612280	0.123279
O5	O	1.509631	0.004313	-0.123411
O6	O	1.319827	0.322171	-0.123398
O7	O	1.688949	0.294430	-0.123416
Cu8	Cu	1.504385	0.308301	-0.145931
Cu9	Cu	1.504419	0.308293	0.145798
O10	O	1.499145	0.612287	-0.123402
C11	C	1.272516	0.320087	-0.000055
C12	C	1.131503	0.313863	-0.000048
C13	C	0.945577	0.075361	-0.000628
C14	C	1.092262	0.081670	-0.000057
C15	C	1.071017	0.425600	0.140815
C16	C	0.924390	0.417675	0.140917
C17	C	0.923918	0.422407	-0.139605
C18	C	1.070923	0.424546	-0.141451
N19	N	1.504371	0.308306	-0.351117
C20	C	1.402515	0.477768	-0.586142
C21	C	1.402751	0.478403	-0.414251
C22	C	1.637614	0.357899	-0.413461
C23	C	1.637061	0.359099	-0.585406
C24	C	1.474297	0.088695	-0.585662
C25	C	1.471266	0.090118	-0.413708
C26	C	1.736288	0.296507	-0.000074
C27	C	1.877301	0.302731	-0.000072
C28	C	1.507560	0.926460	-0.000075
C29	C	1.501241	0.690128	-0.000072
N30	N	1.504443	0.308272	0.350984
H31	H	1.111018	0.342918	-0.245662
H32	H	1.373234	0.052528	-0.372962
H33	H	1.715461	0.240620	-0.626994
F34	F	1.739303	0.200942	-0.360011
F35	F	0.863974	0.635937	0.149278
F36	F	1.427836	0.689502	-0.642571
H37	H	1.422357	0.641309	-0.373103
H38	H	1.096922	0.593829	-0.149954
F39	F	0.881647	0.324188	-0.279167
H40	H	1.379065	0.041495	-0.629106
H41	H	0.878449	0.590118	-0.140554
F42	F	1.571397	-0.076203	-0.638804
H43	H	1.303822	0.448563	-0.372103
F44	F	1.272802	0.439342	-0.640211
F45	F	1.125632	0.324141	0.277840
H46	H	0.914425	-0.015983	0.099828
F47	F	0.886398	0.309724	0.278543
F48	F	1.671086	0.568487	-0.637808
H49	H	1.664171	0.516285	-0.370382
F50	F	1.145604	-0.033596	0.132361
F51	F	1.146746	-0.033250	-0.132039
F52	F	0.906937	-0.044532	-0.132671
F53	F	1.561649	-0.082668	-0.357558
H54	H	1.095157	0.596116	0.146058
