data_functionalizedCrystal
_audit_creation_method	'MofGen! by Chris Wilmer'
_symmetry_space_group_name_H-M	'P1'
_symmetry_Int_Tables_number	1
_symmetry_cell_setting	triclinic
loop_
_symmetry_equiv_pos_as_xyz
  x,y,z
_cell_length_a	12.594517
_cell_length_b	19.121063
_cell_length_c	12.594510
_cell_angle_alpha	87.599829
_cell_angle_beta	90.022787
_cell_angle_gamma	92.468805
loop_
_atom_site_label
_atom_site_type_symbol
_atom_site_fract_x
_atom_site_fract_y
_atom_site_fract_z
Zn1	Zn	1.609125	-0.279555	0.619878
Zn2	Zn	1.601381	-0.397029	0.449471
Zn3	Zn	1.431121	-0.279597	0.441910
Zn4	Zn	1.423484	-0.396969	0.627397
O5	O	1.516278	-0.338287	0.534664
O6	O	1.757043	-0.295146	0.597291
O7	O	1.578751	-0.381494	0.299525
O8	O	1.461171	-0.181307	0.459206
O9	O	1.751353	-0.381454	0.472094
O10	O	1.591949	-0.181277	0.589959
O11	O	1.453662	-0.295217	0.293969
O12	O	1.281163	-0.295159	0.466497
O13	O	1.448155	-0.381351	0.775343
O14	O	1.275552	-0.381391	0.602774
O15	O	1.584544	-0.295087	0.769819
O16	O	1.571345	-0.495305	0.479384
O17	O	1.440646	-0.495261	0.610106
C18	C	1.239738	-0.338273	0.534632
C19	C	1.121431	-0.338284	0.534644
C20	C	1.055203	-0.291318	0.460655
C21	C	0.980230	-0.355385	0.438604
C22	C	0.985603	-0.274249	0.556715
C23	C	1.048014	-0.402385	0.512545
C24	C	1.053397	-0.321205	0.630698
C25	C	0.978453	-0.385316	0.608687
C26	C	1.504355	-0.520767	0.546405
C27	C	1.499352	-0.598832	0.551463
C28	C	1.565103	-0.635507	0.485836
C29	C	1.560404	-0.708858	0.490600
C30	C	1.489948	-0.745532	0.560986
C31	C	1.424195	-0.708852	0.626620
C32	C	1.428900	-0.635503	0.621861
C33	C	1.472340	-0.967000	0.578762
C34	C	1.467637	-1.040355	0.583514
C35	C	1.603849	-1.040356	0.447495
C36	C	1.608543	-0.967005	0.442738
C37	C	1.542794	-0.930331	0.508376
C38	C	1.485141	-0.820509	0.565855
C39	C	1.547607	-0.855356	0.503512
C40	C	1.793898	-0.338302	0.534697
C41	C	1.912203	-0.338308	0.534711
C42	C	1.516361	-0.338208	0.812280
C43	C	1.516397	-0.338174	0.930583
C44	C	1.528275	-0.155096	0.522900
C45	C	1.533388	-0.077030	0.517887
C46	C	1.516259	-0.338316	0.258125
C47	C	1.516442	-0.338152	0.139809
C48	C	1.590605	-0.291241	1.067594
C49	C	1.612430	-0.355328	1.000904
C50	C	1.494619	-0.274095	0.995702
C51	C	1.538316	-0.402273	1.074679
C52	C	1.420462	-0.320996	1.069481
C53	C	1.442247	-0.385127	1.002825
H54	H	1.622471	-0.605652	0.428516
Br55	Br	0.926726	-0.379490	0.303264
H56	H	1.085524	-0.306725	0.711875
H57	H	1.556874	-0.456466	1.109106
Br58	Br	1.747681	-0.379540	0.950639
Br59	Br	1.693080	-1.090131	0.358425
Br60	Br	1.093711	-0.492690	0.481321
H61	H	1.379508	-0.424853	0.974488
Br62	Br	0.922767	-0.451604	0.713032
H63	H	1.427774	-0.850377	0.623161
H64	H	1.366833	-0.738718	0.683934
H65	H	1.604976	-0.825494	0.446207
Br66	Br	1.695234	-0.225185	1.115168
H67	H	1.375360	-0.605642	0.675303
H68	H	1.339339	-0.306452	1.099663
Br69	Br	1.463884	-0.183790	0.938100
H70	H	0.957995	-0.220092	0.575319
H71	H	1.088800	-0.251639	0.398013
H72	H	1.613945	-0.738716	0.437159
H73	H	1.665914	-0.937146	0.385424
H74	H	1.410276	-1.070213	0.640850
H75	H	1.418802	-0.937146	0.632206
