data_functionalizedCrystal
_audit_creation_method	'MofGen! by Chris Wilmer'
_symmetry_space_group_name_H-M	'P1'
_symmetry_Int_Tables_number	1
_symmetry_cell_setting	triclinic
loop_
_symmetry_equiv_pos_as_xyz
  x,y,z
_cell_length_a	19.805407
_cell_length_b	14.908520
_cell_length_c	19.805398
_cell_angle_alpha	93.269215
_cell_angle_beta	89.986879
_cell_angle_gamma	93.320773
loop_
_atom_site_label
_atom_site_type_symbol
_atom_site_fract_x
_atom_site_fract_y
_atom_site_fract_z
Zn1	Zn	1.019159	-0.359172	-0.398269
Zn2	Zn	1.012562	-0.510040	-0.291612
Zn3	Zn	0.905985	-0.359199	-0.285095
Zn4	Zn	0.899415	-0.509989	-0.404757
O5	O	0.959280	-0.434600	-0.344933
O6	O	1.113000	-0.379194	-0.384133
O7	O	0.998413	-0.490063	-0.196032
O8	O	0.926509	-0.232951	-0.294665
O9	O	1.108153	-0.490037	-0.305773
O10	O	1.009657	-0.232930	-0.377813
O11	O	0.920112	-0.379241	-0.191244
O12	O	0.810398	-0.379192	-0.300956
O13	O	0.915310	-0.489950	-0.498611
O14	O	0.805570	-0.489977	-0.388871
O15	O	1.003286	-0.379145	-0.493845
O16	O	0.992042	-0.636278	-0.312064
O17	O	0.908913	-0.636241	-0.395191
C18	C	0.783425	-0.434583	-0.344911
C19	C	0.708192	-0.434597	-0.344918
C20	C	0.670349	-0.492370	-0.390629
C21	C	0.599660	-0.492371	-0.390639
C22	C	0.566817	-0.434604	-0.344933
C23	C	0.604666	-0.376825	-0.299220
C24	C	0.675353	-0.376820	-0.299214
C25	C	0.319591	-0.376845	-0.299243
C26	C	0.248899	-0.376857	-0.299251
C27	C	0.243899	-0.492397	-0.390668
C28	C	0.314586	-0.492391	-0.390662
C29	C	0.352429	-0.434609	-0.344951
C30	C	0.429077	-0.434607	-0.344942
C31	C	0.490169	-0.434610	-0.344939
C32	C	0.949067	-0.668994	-0.355053
C33	C	0.944760	-0.769268	-0.359405
C34	C	1.023317	-0.957672	-0.281093
C35	C	1.019272	-1.051889	-0.285180
C36	C	0.932629	-1.051920	-0.371669
C37	C	0.936674	-0.957704	-0.367582
C38	C	0.982019	-0.910583	-0.322292
C39	C	0.986060	-0.816364	-0.318202
C40	C	0.899421	-0.816397	-0.404694
C41	C	0.895376	-0.910614	-0.408781
C42	C	1.135822	-0.434618	-0.344956
C43	C	1.211054	-0.434626	-0.344966
C44	C	0.959301	-0.434539	-0.521473
C45	C	0.959310	-0.434513	-0.596704
C46	C	0.969552	-0.199291	-0.334788
C47	C	0.973929	-0.099017	-0.330465
C48	C	1.000194	-0.492075	-1.060980
C49	C	1.000175	-0.492099	-0.990293
C50	C	0.959398	-0.434411	-0.952462
C51	C	0.918634	-0.376702	-0.985322
C52	C	0.918651	-0.376682	-1.056008
C53	C	0.918565	-0.376779	-0.700252
C54	C	0.918553	-0.376801	-0.629561
C55	C	1.000089	-0.492196	-0.634536
C56	C	1.000106	-0.492176	-0.705223
C57	C	0.959339	-0.434471	-0.738077
C58	C	0.959360	-0.434446	-0.814724
C59	C	0.959380	-0.434431	-0.875815
C60	C	0.959301	-0.434596	-0.169077
C61	C	0.959435	-0.434368	-0.093836
H62	H	0.568850	-0.539416	-0.427861
H63	H	1.022980	-0.777999	-0.281323
H64	H	0.885370	-0.329793	-0.726993
H65	H	0.865791	-0.778046	-0.438239
Cl66	Cl	0.867382	-0.304167	-0.937762
Cl67	Cl	1.051338	-0.564744	-0.593230
H68	H	0.895716	-1.090302	-0.408546
Cl69	Cl	0.563377	-0.304197	-0.241766
H70	H	1.033402	-0.539047	-1.091777
H71	H	0.885346	-0.329822	-0.598760
H72	H	0.885461	-0.329690	-1.082758
Cl73	Cl	1.051370	-0.564700	-0.752778
H74	H	1.060234	-0.919306	-0.244211
Cl75	Cl	0.722928	-0.304186	-0.241748
H76	H	0.213078	-0.539442	-0.427890
Cl77	Cl	0.711630	-0.565000	-0.448087
Cl78	Cl	1.051419	-0.564647	-0.948992
H79	H	0.341323	-0.539434	-0.427878
Cl80	Cl	0.207611	-0.304228	-0.241790
H81	H	0.350395	-0.329803	-0.262018
H82	H	1.052903	-1.090226	-0.251633
Cl83	Cl	0.838376	-0.969860	-0.465716
