data_functionalizedCrystal
_audit_creation_method	'MofGen! by Chris Wilmer'
_symmetry_space_group_name_H-M	'P1'
_symmetry_Int_Tables_number	1
_symmetry_cell_setting	triclinic
loop_
_symmetry_equiv_pos_as_xyz
  x,y,z
_cell_length_a	14.519709
_cell_length_b	12.837943
_cell_length_c	11.892095
_cell_angle_alpha	85.689237
_cell_angle_beta	93.895429
_cell_angle_gamma	89.254542
loop_
_atom_site_label
_atom_site_type_symbol
_atom_site_fract_x
_atom_site_fract_y
_atom_site_fract_z
O1	O	0.234472	1.382516	-0.093994
O2	O	0.734472	1.882516	0.406006
O3	O	0.222627	1.080689	-0.093999
O4	O	0.722627	1.580689	0.406001
O5	O	0.095003	1.239604	-0.093986
O6	O	0.595003	1.739604	0.406014
O7	O	0.362096	1.223600	-0.094006
O8	O	0.862096	1.723600	0.405994
O9	O	0.105626	1.226354	0.094021
O10	O	0.605626	1.726354	0.594021
O11	O	0.233249	1.067439	0.094008
O12	O	0.733249	1.567439	0.594008
O13	O	0.245095	1.369266	0.094013
O14	O	0.745095	1.869266	0.594013
Zn15	Zn	0.240859	1.216248	0.123860
Zn16	Zn	0.740859	1.716248	0.623860
Zn17	Zn	0.226863	1.233706	-0.123846
Zn18	Zn	0.726863	1.733706	0.376154
O19	O	0.372718	1.210350	0.094000
O20	O	0.872718	1.710350	0.594000
C21	C	0.065890	1.232233	0.000018
C22	C	0.565890	1.732233	0.500018
C23	C	-0.036684	1.229998	0.000018
C24	C	0.463316	1.729998	0.500018
C25	C	0.243785	1.414519	0.000008
C26	C	0.743785	1.914519	0.500008
C27	C	0.255718	1.529619	0.000002
C28	C	0.755718	2.029619	0.500002
C29	C	0.223936	1.035436	0.000004
C30	C	0.723936	1.535436	0.500004
C31	C	0.212002	0.920337	0.000002
C32	C	0.712002	1.420337	0.500002
C33	C	-0.412293	1.221771	-0.000011
C34	C	0.087707	1.721771	0.499989
C35	C	-0.307787	1.224056	-0.000003
C36	C	0.192213	1.724056	0.499997
C37	C	-0.224492	1.225884	0.000004
C38	C	0.275508	1.725884	0.500004
C39	C	-0.119979	1.228169	0.000011
C40	C	0.380021	1.728169	0.500011
C41	C	0.401831	1.217722	-0.000006
C42	C	0.901831	1.717722	0.499994
C43	C	0.504405	1.219957	-0.000014
C44	C	1.004405	1.719957	0.499986
N45	N	0.250411	1.204342	0.292913
N46	N	0.750411	1.704342	0.792913
C47	C	0.112249	1.770309	0.000025
C48	C	0.612249	2.270309	0.500025
C49	C	0.123458	1.878456	0.000019
C50	C	0.623458	2.378456	0.500019
C51	C	0.289344	1.854061	-0.000006
C52	C	0.789344	2.354061	0.499994
C53	C	0.278135	1.745914	-0.000001
C54	C	0.778135	2.245914	0.499999
C55	C	0.189585	1.704043	0.000013
C56	C	0.689585	2.204043	0.500013
C57	C	0.178377	1.595894	0.000010
C58	C	0.678377	2.095894	0.500010
C59	C	0.344263	1.571500	-0.000007
C60	C	0.844263	2.071500	0.499993
C61	C	0.355471	1.679647	-0.000012
C62	C	0.855471	2.179647	0.499988
N63	N	0.217304	1.245621	-0.292899
N64	N	0.717304	1.745621	0.207101
C65	C	0.150784	1.328474	0.529571
C66	C	0.650784	1.828474	1.029571
C67	C	0.157468	1.320158	0.647913
C68	C	0.657468	1.820158	1.147913
C69	C	0.270458	1.179392	0.647939
C70	C	0.770458	1.679392	1.147939
C71	C	0.263774	1.187707	0.529598
C72	C	0.763774	1.687707	1.029598
C73	C	0.203936	1.262251	0.470418
C74	C	0.703936	1.762251	0.970418
C75	C	0.197257	1.270571	0.352075
C76	C	0.697257	1.770571	0.852075
C77	C	0.310241	1.129800	0.352104
C78	C	0.810241	1.629800	0.852104
C79	C	0.316926	1.121485	0.470445
C80	C	0.816926	1.621485	0.970445
H81	H	0.106275	1.561805	0.000017
H82	H	0.606275	2.061805	0.500017
H83	H	0.040148	1.736218	0.000025
H84	H	0.540148	2.236218	0.500025
H85	H	0.353524	1.075880	0.303928
H86	H	0.853524	1.575880	0.803928
H87	H	0.407235	1.517533	-0.000017
H88	H	0.907235	2.017533	0.499983
C89	C	0.382715	1.039463	0.535543
C90	C	0.882715	1.539463	1.035543
H91	H	0.413401	1.001202	0.483361
H92	H	0.913401	1.501202	0.983361
H93	H	0.427020	1.073554	0.581719
H94	H	0.927020	1.573554	1.081719
H95	H	0.348297	0.993007	0.581697
H96	H	0.848297	1.493007	1.081697
H97	H	0.102068	1.389177	0.481386
H98	H	0.602068	1.889177	0.981386
H99	H	0.361438	1.888172	-0.000007
H100	H	0.861438	2.388172	0.499993
C101	C	0.038388	1.951347	0.000022
C102	C	0.538388	2.451347	0.500022
H103	H	-0.015952	1.910918	0.000021
H104	H	0.484048	2.410918	0.500021
H105	H	0.043016	1.989430	0.065579
H106	H	0.543016	2.489430	0.565579
H107	H	0.035607	1.998655	-0.065554
H108	H	0.535607	2.498655	0.434446
H109	H	0.148536	1.331271	0.303892
H110	H	0.648536	1.831271	0.803892
H111	H	0.114185	1.374082	0.696072
H112	H	0.614185	1.874082	1.196072
C113	C	0.336270	1.097400	0.713050
C114	C	0.836270	1.597400	1.213050
H115	H	0.332637	1.101938	0.792001
H116	H	0.832637	1.601938	1.292001
H117	H	0.319048	1.029551	0.693671
H118	H	0.819048	1.529551	1.193671
H119	H	0.397734	1.110142	0.693658
H120	H	0.897734	1.610142	1.193658
H121	H	0.427567	1.713754	-0.000020
H122	H	0.927567	2.213754	0.499980
