data_functionalizedCrystal
_audit_creation_method	'MofGen! by Chris Wilmer'
_symmetry_space_group_name_H-M	'P1'
_symmetry_Int_Tables_number	1
_symmetry_cell_setting	triclinic
loop_
_symmetry_equiv_pos_as_xyz
  x,y,z
_cell_length_a	21.395364
_cell_length_b	12.645330
_cell_length_c	21.395355
_cell_angle_alpha	89.985534
_cell_angle_beta	89.975448
_cell_angle_gamma	90.027597
loop_
_atom_site_label
_atom_site_type_symbol
_atom_site_fract_x
_atom_site_fract_y
_atom_site_fract_z
Zn1	Zn	0.957938	-0.421739	-0.354279
Zn2	Zn	0.957873	-0.598988	-0.249509
Zn3	Zn	0.853153	-0.421786	-0.249516
Zn4	Zn	0.853155	-0.599007	-0.354249
O5	O	0.905530	-0.510380	-0.301888
O6	O	1.045607	-0.445224	-0.340391
O7	O	0.943954	-0.575494	-0.161832
O8	O	0.867079	-0.273432	-0.263428
O9	O	1.045560	-0.575449	-0.263417
O10	O	0.944064	-0.273398	-0.340397
O11	O	0.867016	-0.445303	-0.161837
O12	O	0.765475	-0.445322	-0.263399
O13	O	0.867083	-0.575481	-0.441931
O14	O	0.765477	-0.575526	-0.340346
O15	O	0.944066	-0.445243	-0.441953
O16	O	0.943956	-0.747338	-0.263388
O17	O	0.867020	-0.747352	-0.340340
C18	C	0.742742	-0.510432	-0.301871
C19	C	0.673101	-0.510479	-0.301878
C20	C	0.640435	-0.442783	-0.342020
C21	C	0.574999	-0.442754	-0.342023
C22	C	0.542233	-0.510442	-0.301889
C23	C	0.574907	-0.578143	-0.261739
C24	C	0.640341	-0.578162	-0.261734
C25	C	0.438526	-0.605910	-0.296856
C26	C	0.373093	-0.605893	-0.296866
C27	C	0.340412	-0.510383	-0.301903
C28	C	0.373172	-0.414888	-0.306944
C29	C	0.438606	-0.414907	-0.306938
C30	C	0.471280	-0.510429	-0.301891
C31	C	0.236793	-0.442650	-0.342051
C32	C	0.171357	-0.442620	-0.342049
C33	C	0.171265	-0.578019	-0.261768
C34	C	0.236700	-0.578039	-0.261767
C35	C	0.269461	-0.510357	-0.301911
C36	C	0.905498	-0.785810	-0.301874
C37	C	0.905542	-0.903640	-0.301888
C38	C	0.953865	-1.071151	-0.253379
C39	C	0.954022	-0.948591	-0.253498
C40	C	0.923453	-0.948039	-0.367933
C41	C	0.923836	-1.070636	-0.367675
C42	C	0.839290	-1.070990	-0.285003
C43	C	0.839607	-0.948385	-0.283522
C44	C	1.068953	-0.510329	-0.301906
C45	C	1.138594	-0.510307	-0.301914
C46	C	0.905582	-0.510359	-0.465312
C47	C	0.905604	-0.510349	-0.534953
C48	C	0.905578	-0.233875	-0.301917
C49	C	0.905599	-0.116045	-0.301929
C50	C	0.945687	-0.442532	-0.567679
C51	C	0.945687	-0.442486	-0.633114
C52	C	0.905609	-0.510277	-0.665821
C53	C	0.865517	-0.578100	-0.633088
C54	C	0.865515	-0.578136	-0.567654
C55	C	0.900651	-0.605732	-0.769491
C56	C	0.900657	-0.605697	-0.834924
C57	C	0.905613	-0.510165	-0.867642
C58	C	0.910574	-0.414664	-0.834919
C59	C	0.910572	-0.414701	-0.769485
C60	C	0.905607	-0.510245	-0.736774
C61	C	0.945697	-0.442292	-0.971320
C62	C	0.945692	-0.442245	-1.036757
C63	C	0.865526	-0.577868	-1.036730
C64	C	0.865528	-0.577906	-0.971294
C65	C	0.905617	-0.510120	-0.938594
C66	C	0.905514	-0.510325	-0.139101
C67	C	0.905613	-0.510035	-0.069460
H68	H	0.548224	-0.633254	-0.229062
O69	O	0.895310	-0.708700	-0.870212
H70	H	0.896154	-0.692629	-0.921208
H71	H	0.144761	-0.387487	-0.374736
O72	O	0.822287	-0.651218	-0.668359
H73	H	0.829026	-0.639806	-0.719358
H74	H	0.465276	-0.337151	-0.311040
H75	H	0.346425	-0.683651	-0.292765
H76	H	1.002714	-1.101864	-0.264449
H77	H	1.003135	-0.919165	-0.264693
H78	H	0.978330	-0.387333	-0.541058
H79	H	0.465130	-0.683691	-0.292753
H80	H	0.832871	-0.633360	-0.541009
O81	O	0.895305	-0.708777	-0.734204
H82	H	0.852856	-0.707126	-0.704381
H83	H	0.890222	-1.100332	-0.405095
O84	O	0.675771	-0.369766	-0.385305
H85	H	0.642058	-0.322677	-0.413213
H86	H	0.914610	-0.336941	-0.742845
H87	H	0.972305	-1.099133	-0.382013
H88	H	0.823003	-1.101989	-0.237682
H89	H	0.666937	-0.633291	-0.229044
H90	H	0.826103	-0.919377	-0.234919
H91	H	0.942816	-0.918574	-0.204527
H92	H	0.263297	-0.633170	-0.229081
H93	H	0.346564	-0.337115	-0.311046
O94	O	0.939586	-1.111120	-0.188416
H95	H	0.897887	-1.163298	-0.190021
H96	H	0.548397	-0.387622	-0.374711
O97	O	0.878314	-0.909467	-0.417140
H98	H	0.842551	-0.858117	-0.394993
O99	O	0.988926	-0.369347	-0.668423
H100	H	1.016805	-0.322223	-0.634691
O101	O	0.791676	-1.109673	-0.331801
H102	H	0.805040	-1.082432	-0.379284
O103	O	0.272133	-0.369637	-0.385337
H104	H	0.259587	-0.387922	-0.434494
O105	O	0.135935	-0.651029	-0.218479
H106	H	0.084945	-0.639647	-0.225229
H107	H	0.971374	-0.917235	-0.382509
O108	O	0.789396	-0.907869	-0.326922
H109	H	0.800148	-0.932705	-0.375503
O110	O	0.915902	-0.311611	-0.870196
H111	H	0.915057	-0.327623	-0.921194
O112	O	0.988926	-0.369173	-0.936043
H113	H	1.016792	-0.321992	-0.969795
O114	O	0.988928	-0.369097	-1.072059
H115	H	1.016806	-0.321979	-1.038324
O116	O	0.822293	-0.650984	-1.071995
H117	H	0.850324	-0.704902	-1.101818
O118	O	0.822278	-0.651024	-0.935991
H119	H	0.794404	-0.698149	-0.969725
