data_functionalizedCrystal
_audit_creation_method	'MofGen! by Chris Wilmer'
_symmetry_space_group_name_H-M	'P1'
_symmetry_Int_Tables_number	1
_symmetry_cell_setting	triclinic
loop_
_symmetry_equiv_pos_as_xyz
  x,y,z
_cell_length_a	12.594517
_cell_length_b	12.594509
_cell_length_c	18.215405
_cell_angle_alpha	89.965356
_cell_angle_beta	90.024317
_cell_angle_gamma	89.977786
loop_
_atom_site_label
_atom_site_type_symbol
_atom_site_fract_x
_atom_site_fract_y
_atom_site_fract_z
Zn1	Zn	1.627202	-0.601838	-0.292973
Zn2	Zn	1.627065	-0.423839	-0.416053
Zn3	Zn	1.449206	-0.423864	-0.293004
Zn4	Zn	1.449160	-0.601767	-0.416001
O5	O	1.538158	-0.512827	-0.354508
O6	O	1.776129	-0.578245	-0.309309
O7	O	1.603433	-0.274897	-0.399765
O8	O	1.472893	-0.447513	-0.190016
O9	O	1.776029	-0.447471	-0.399735
O10	O	1.603666	-0.578269	-0.189993
O11	O	1.472761	-0.274915	-0.309361
O12	O	1.300254	-0.447444	-0.309311
O13	O	1.472816	-0.750722	-0.399647
O14	O	1.300221	-0.578148	-0.399677
O15	O	1.603622	-0.750774	-0.309259
O16	O	1.603389	-0.447402	-0.519031
O17	O	1.472684	-0.578124	-0.518993
C18	C	1.261617	-0.512791	-0.354492
C19	C	1.143312	-0.512801	-0.354503
C20	C	1.538229	-0.790448	-0.354444
C21	C	1.538260	-0.908753	-0.354416
C22	C	1.003282	-0.441874	-0.305299
C23	C	1.074145	-0.539003	-0.287368
C24	C	1.074021	-0.415683	-0.372401
C25	C	1.003389	-0.610060	-0.336566
C26	C	1.003258	-0.486674	-0.421630
C27	C	1.074089	-0.583870	-0.403725
C28	C	1.467137	-0.977978	-0.403550
C29	C	1.564253	-1.048767	-0.421532
C30	C	1.441219	-1.048764	-0.336390
C31	C	1.635427	-0.977984	-0.372433
C32	C	1.512327	-0.977974	-0.287260
C33	C	1.609511	-1.048731	-0.305216
C34	C	1.815779	-0.512863	-0.354525
C35	C	1.934084	-0.512879	-0.354532
C36	C	1.538046	-0.512776	-0.545714
C37	C	1.538095	-0.512789	-0.627513
C38	C	1.538148	-0.236286	-0.354519
C39	C	1.538324	-0.117981	-0.354339
C40	C	1.606313	-0.444847	-0.815702
C41	C	1.606361	-0.444873	-0.892561
C42	C	1.470139	-0.580883	-0.892561
C43	C	1.470098	-0.580862	-0.815704
C44	C	1.538183	-0.512838	-0.777277
C45	C	1.538272	-0.512885	-0.930993
C46	C	1.538323	-0.512913	-1.014326
C47	C	1.538134	-0.512811	-0.693938
C48	C	1.538300	-0.512902	-0.162555
C49	C	1.538360	-0.512933	-0.080756
H50	H	0.972196	-0.381934	-0.263645
Cl51	Cl	1.122208	-0.573192	-0.199741
Cl52	Cl	1.692017	-0.359398	-0.940865
H53	H	1.586222	-1.079863	-0.478292
Cl54	Cl	1.384547	-0.666390	-0.940875
Cl55	Cl	1.384447	-0.666348	-0.767394
H56	H	0.972491	-0.692248	-0.321374
Cl57	Cl	0.955142	-0.452449	-0.509231
Cl58	Cl	1.121788	-0.676628	-0.467988
H59	H	1.490330	-0.946855	-0.230516
Cl60	Cl	1.121928	-0.288828	-0.395755
H61	H	1.669755	-1.079601	-0.263632
H62	H	1.407037	-0.946913	-0.445166
H63	H	1.717544	-0.947024	-0.387712
H64	H	1.359126	-1.079855	-0.321175
H65	H	1.661754	-0.389460	-0.784417
