data_functionalizedCrystal
_audit_creation_method	'MofGen! by Chris Wilmer'
_symmetry_space_group_name_H-M	'P1'
_symmetry_Int_Tables_number	1
_symmetry_cell_setting	triclinic
loop_
_symmetry_equiv_pos_as_xyz
  x,y,z
_cell_length_a	9.065218
_cell_length_b	9.130313
_cell_length_c	9.065218
_cell_angle_alpha	90.000552
_cell_angle_beta	94.984115
_cell_angle_gamma	90.000341
loop_
_atom_site_label
_atom_site_type_symbol
_atom_site_fract_x
_atom_site_fract_y
_atom_site_fract_z
O1	O	1.960393	0.121797	-0.216350
O2	O	1.531108	0.121798	-0.234097
O3	O	1.754624	0.121794	-0.010581
O4	O	1.736877	0.121800	-0.439866
O5	O	1.754621	-0.121805	-0.010587
O6	O	1.531106	-0.121801	-0.234103
O7	O	1.960390	-0.121802	-0.216356
Cu8	Cu	1.745748	-0.144044	-0.225230
Cu9	Cu	1.745751	0.144040	-0.225223
O10	O	1.736875	-0.121798	-0.439872
C11	C	1.476120	-0.000001	-0.232394
C12	C	1.312277	-0.000000	-0.227294
N13	N	1.745756	-0.346667	-0.225234
C14	C	1.844755	-0.423320	-0.126296
C15	C	1.844751	-0.576657	-0.126278
C16	C	1.646745	-0.576673	-0.324150
C17	C	1.646743	-0.423339	-0.324160
C18	C	1.943768	-0.346648	-0.027370
C19	C	2.042776	-0.423302	0.071575
C20	C	2.042772	-0.576638	0.071593
C21	C	1.943760	-0.653321	-0.027335
C22	C	2.015378	0.000000	-0.218059
C23	C	2.179221	0.000009	-0.223158
C24	C	1.752917	-0.000003	0.044403
C25	C	1.747817	0.000004	0.208245
N26	N	1.745754	0.346662	-0.225207
C27	C	1.738582	0.000002	-0.494855
C28	C	1.743681	0.000004	-0.658698
H29	H	1.943783	-0.221793	-0.027379
Cl30	Cl	2.167223	-0.673002	0.195989
H31	H	2.123380	-0.360858	0.152127
H32	H	1.566134	-0.639118	-0.404695
Cl33	Cl	1.943749	-0.846090	-0.027293
H34	H	1.566128	-0.360927	-0.404723
