data_functionalizedCrystal
_audit_creation_method	'MofGen! by Chris Wilmer'
_symmetry_space_group_name_H-M	'P1'
_symmetry_Int_Tables_number	1
_symmetry_cell_setting	triclinic
loop_
_symmetry_equiv_pos_as_xyz
  x,y,z
_cell_length_a	17.699083
_cell_length_b	19.188937
_cell_length_c	16.776229
_cell_angle_alpha	89.991546
_cell_angle_beta	90.005254
_cell_angle_gamma	83.215223
loop_
_atom_site_label
_atom_site_type_symbol
_atom_site_fract_x
_atom_site_fract_y
_atom_site_fract_z
O1	O	-1.003958	-0.088296	0.066170
O2	O	-0.503958	0.411704	0.566170
O3	O	-0.783565	-0.099783	0.066199
O4	O	-0.283565	0.400217	0.566199
O5	O	-0.900119	0.007609	0.066176
O6	O	-0.400119	0.507609	0.566176
O7	O	-0.887404	-0.195687	0.066193
O8	O	-0.387404	0.304313	0.566193
O9	O	-0.900117	0.007619	-0.066400
O10	O	-0.400117	0.507619	0.433600
O11	O	-0.783563	-0.099773	-0.066378
O12	O	-0.283563	0.400227	0.433622
O13	O	-1.003956	-0.088286	-0.066406
O14	O	-0.503956	0.411714	0.433594
Zn15	Zn	-0.893759	-0.094028	-0.087441
Zn16	Zn	-0.393759	0.405972	0.412559
Zn17	Zn	-0.893761	-0.094041	0.087234
Zn18	Zn	-0.393761	0.405959	0.587234
O19	O	-0.887402	-0.195678	-0.066384
O20	O	-0.387402	0.304322	0.433616
C21	C	-0.755367	-0.099366	-0.000086
C22	C	-0.255367	0.400634	0.499914
C23	C	-0.671351	-0.098132	-0.000076
C24	C	-0.171351	0.401868	0.499924
C25	C	-0.899705	0.033625	-0.000112
C26	C	-0.399705	0.533625	0.499888
C27	C	-0.898467	0.111131	-0.000113
C28	C	-0.398467	0.611131	0.499887
C29	C	-0.622648	-0.161168	-0.000071
C30	C	-0.122648	0.338832	0.499929
C31	C	-0.543706	-0.160004	-0.000080
C32	C	-0.043706	0.339996	0.499920
C33	C	-0.513469	-0.095802	-0.000090
C34	C	-0.013469	0.404198	0.499910
C35	C	-0.562177	-0.032760	-0.000097
C36	C	-0.062177	0.467240	0.499903
C37	C	-0.641117	-0.033926	-0.000093
C38	C	-0.141117	0.466074	0.499907
C39	C	-0.243820	-0.028060	-0.000115
C40	C	0.256180	0.471940	0.499885
C41	C	-0.164874	-0.026900	-0.000116
C42	C	0.335126	0.473100	0.499884
C43	C	-0.146409	-0.154138	-0.000102
C44	C	0.353591	0.345862	0.499898
C45	C	-0.225349	-0.155304	-0.000098
C46	C	0.274651	0.344696	0.499902
C47	C	-0.274051	-0.092262	-0.000110
C48	C	0.225949	0.407738	0.499890
C49	C	-0.359649	-0.093526	-0.000101
C50	C	0.140351	0.406474	0.499899
C51	C	-0.427872	-0.094538	-0.000093
C52	C	0.072128	0.405462	0.499907
C53	C	-0.032153	-0.088702	-0.000118
C54	C	0.467847	0.411298	0.499882
C55	C	-0.116170	-0.089937	-0.000117
C56	C	0.383830	0.410063	0.499883
N57	N	-0.893764	-0.094044	0.206445
N58	N	-0.393764	0.405956	0.706445
C59	C	-0.889654	0.664406	-0.072367
C60	C	-0.389654	1.164406	0.427633
C61	C	-0.890810	0.591580	-0.072371
C62	C	-0.390810	1.091580	0.427629
C63	C	-0.891392	0.555155	-0.000104
C64	C	-0.391392	1.055155	0.499896
C65	C	-0.890799	0.591559	0.072172
C66	C	-0.390799	1.091559	0.572172
C67	C	-0.889636	0.664382	0.072174
C68	C	-0.389636	1.164382	0.572174
N69	N	-0.936288	0.446076	0.053681
N70	N	-0.436288	0.946076	0.553681
N71	N	-0.937394	0.376897	0.053675
N72	N	-0.437394	0.876897	0.553675
C73	C	-0.894895	0.335741	-0.000104
C74	C	-0.394895	0.835741	0.499896
N75	N	-0.851257	0.366379	-0.053889
N76	N	-0.351257	0.866379	0.446111
N77	N	-0.850153	0.435565	-0.053885
N78	N	-0.350153	0.935565	0.446115
C79	C	-0.892653	0.476190	-0.000097
C80	C	-0.392653	0.976190	0.499903
C81	C	-0.896735	0.220379	-0.072380
C82	C	-0.396735	0.720379	0.427620
C83	C	-0.897885	0.147551	-0.072380
C84	C	-0.397885	0.647551	0.427620
C85	C	-0.897883	0.147532	0.072165
C86	C	-0.397883	0.647532	0.572165
C87	C	-0.896725	0.220358	0.072163
C88	C	-0.396725	0.720358	0.572163
C89	C	-0.896154	0.256777	-0.000111
C90	C	-0.396154	0.756777	0.499889
C91	C	-0.887818	0.778306	-0.000097
C92	C	-0.387818	1.278306	0.499903
C93	C	-0.889066	0.700802	-0.000101
C94	C	-0.389066	1.200802	0.499899
N95	N	-0.893763	-0.094019	-0.206653
N96	N	-0.393763	0.405981	0.293347
C97	C	-0.945469	-0.046584	0.248152
C98	C	-0.445469	0.453416	0.748152
C99	C	-0.945472	-0.046583	0.331605
C100	C	-0.445472	0.453417	0.831605
C101	C	-0.893765	-0.094038	0.373348
C102	C	-0.393765	0.405962	0.873348
C103	C	-0.842057	-0.141503	0.331635
C104	C	-0.342057	0.358497	0.831635
C105	C	-0.842059	-0.141507	0.248184
C106	C	-0.342059	0.358493	0.748184
C107	C	-0.842052	-0.141486	0.668182
C108	C	-0.342052	0.358514	1.168182
C109	C	-0.842053	-0.141476	0.751639
C110	C	-0.342053	0.358524	1.251639
C111	C	-0.945465	-0.046561	0.751602
C112	C	-0.445465	0.453439	1.251602
C113	C	-0.945467	-0.046566	0.668152
C114	C	-0.445467	0.453434	1.168152
C115	C	-0.893762	-0.094033	0.626446
C116	C	-0.393762	0.405967	1.126446
C117	C	-0.893760	-0.094035	0.535958
C118	C	-0.393760	0.405965	1.035958
C119	C	-0.893763	-0.094033	0.463835
C120	C	-0.393763	0.405967	0.963835
H121	H	-0.647261	-0.213449	-0.000062
H122	H	-0.147261	0.286551	0.499938
H123	H	-0.106746	-0.205470	-0.000097
H124	H	0.393254	0.294530	0.499903
Br125	Br	-0.771887	-0.205913	0.388283
Br126	Br	-0.271887	0.294087	0.888283
Br127	Br	-0.895931	0.269756	0.170245
Br128	Br	-0.395931	0.769756	0.670245
Br129	Br	-0.266382	-0.242438	-0.000078
Br130	Br	0.233618	0.257562	0.499922
Br131	Br	-0.895958	0.269810	-0.170463
Br132	Br	-0.395958	0.769810	0.329537
Br133	Br	-0.891591	0.542127	0.170250
Br134	Br	-0.391591	1.042127	0.670250
Br135	Br	-1.015638	0.017843	0.611502
Br136	Br	-0.515638	0.517843	1.111502
Br137	Br	-0.123837	0.060237	-0.000127
Br138	Br	0.376163	0.560237	0.499873
H139	H	-0.537551	0.019514	-0.000116
H140	H	-0.037551	0.519514	0.499884
Br141	Br	-1.015648	0.017825	0.388210
Br142	Br	-0.515648	0.517825	0.888210
Br143	Br	-0.891614	0.542175	-0.170453
Br144	Br	-0.391614	1.042175	0.329547
H145	H	-0.898363	0.117919	-0.131231
H146	H	-0.398363	0.617919	0.368769
Br147	Br	-0.888837	0.713780	0.170257
Br148	Br	-0.388837	1.213780	0.670257
Br149	Br	-0.898637	0.098101	0.170243
Br150	Br	-0.398637	0.598101	0.670243
Br151	Br	-1.015642	0.017828	0.191509
Br152	Br	-0.515642	0.517828	0.691509
H153	H	-0.987569	-0.007913	0.785568
H154	H	-0.487569	0.492087	1.285568
Br155	Br	-0.707215	0.051628	-0.000107
Br156	Br	-0.207215	0.551628	0.499893
Br157	Br	-0.477612	-0.245558	-0.000071
Br158	Br	0.022388	0.254442	0.499929
Br159	Br	-0.309905	0.057496	-0.000133
Br160	Br	0.190095	0.557496	0.499867
H161	H	-0.799945	-0.180122	0.785625
H162	H	-0.299945	0.319878	1.285625
Br163	Br	-0.888874	0.713829	-0.170453
Br164	Br	-0.388874	1.213829	0.329547
H165	H	-0.799950	-0.180134	0.634232
H166	H	-0.299950	0.319866	1.134232
H167	H	-0.799956	-0.180154	0.214227
H168	H	-0.299956	0.319846	0.714227
