data_functionalizedCrystal
_audit_creation_method	'MofGen! by Chris Wilmer'
_symmetry_space_group_name_H-M	'P1'
_symmetry_Int_Tables_number	1
_symmetry_cell_setting	triclinic
loop_
_symmetry_equiv_pos_as_xyz
  x,y,z
_cell_length_a	15.995292
_cell_length_b	23.532407
_cell_length_c	14.472310
_cell_angle_alpha	89.994233
_cell_angle_beta	89.985801
_cell_angle_gamma	83.158647
loop_
_atom_site_label
_atom_site_type_symbol
_atom_site_fract_x
_atom_site_fract_y
_atom_site_fract_z
O1	O	1.110418	0.073246	-0.076876
O2	O	0.866560	0.082346	-0.076873
O3	O	0.995842	-0.005109	-0.076857
O4	O	0.981135	0.160700	-0.076891
O5	O	0.995809	-0.005103	0.076825
O6	O	0.866527	0.082351	0.076809
O7	O	1.110384	0.073251	0.076806
Cu8	Cu	0.988453	0.077801	0.090840
Cu9	Cu	0.988492	0.077795	-0.090907
O10	O	0.981102	0.160705	0.076791
C11	C	0.835351	0.081978	-0.000032
C12	C	0.742407	0.080867	-0.000030
C13	C	0.404703	0.076786	-0.000040
C14	C	0.427490	0.139908	-0.000395
C15	C	0.524156	0.141108	-0.000045
C16	C	0.572242	0.078811	-0.000035
C17	C	0.543384	0.047256	0.087728
C18	C	0.446599	0.046496	0.087798
C19	C	0.446792	0.045201	-0.086967
C20	C	0.543266	0.047540	-0.088124
C21	C	0.666928	0.079952	-0.000030
C22	C	0.310016	0.075642	-0.000039
C23	C	0.995451	-0.026323	-0.000014
C24	C	0.994325	-0.089545	-0.000007
C25	C	1.063769	-0.488390	-0.000058
C26	C	1.062723	-0.547795	-0.000065
O27	O	1.127099	-0.584300	-0.000100
N28	N	0.985865	-0.570706	-0.000064
C29	C	0.910048	-0.534209	-0.000065
O30	O	0.844578	-0.559151	-0.000065
C31	C	0.911095	-0.474806	-0.000064
C32	C	0.987958	-0.451898	-0.000057
C33	C	1.140626	-0.465482	-0.000051
C34	C	1.141672	-0.406082	-0.000043
C35	C	1.065861	-0.369590	-0.000041
C36	C	0.989004	-0.392498	-0.000048
C37	C	0.835278	-0.438310	-0.000072
C38	C	0.836332	-0.378904	-0.000072
C39	C	0.913195	-0.355997	-0.000064
C40	C	0.914238	-0.296606	-0.000037
N41	N	0.991096	-0.273695	-0.000039
C42	C	1.066908	-0.310187	-0.000041
C43	C	0.907855	-0.658960	-0.000067
C44	C	0.906807	-0.718361	-0.000061
C45	C	1.059483	-0.731943	-0.000063
C46	C	1.060530	-0.672540	-0.000063
C47	C	0.984713	-0.636049	-0.000069
C48	C	1.069098	-0.185443	-0.000021
C49	C	1.070137	-0.126037	-0.000009
C50	C	0.917461	-0.112460	-0.000011
C51	C	0.916422	-0.171861	-0.000019
C52	C	0.992247	-0.208351	-0.000027
O53	O	0.849896	-0.260066	-0.000006
O54	O	1.132367	-0.285237	-0.000052
C55	C	1.141594	0.073619	-0.000037
C56	C	1.234537	0.074729	-0.000045
C57	C	0.981493	0.181920	-0.000055
C58	C	0.982619	0.245141	-0.000068
N59	N	0.988431	0.077805	0.218671
N60	N	0.988520	0.077787	-0.218738
C61	C	0.988491	0.077793	0.592762
C62	C	0.919085	0.124431	0.553588
C63	C	0.919243	0.124601	0.446500
C64	C	0.988460	0.077799	0.407171
C65	C	1.075720	0.090765	0.446004
C66	C	1.075329	0.091097	0.553126
C67	C	0.971418	0.018050	0.553304
C68	C	0.969411	0.018449	0.446177
C69	C	0.988449	0.077801	0.302283
C70	C	0.988508	0.077792	0.697650
H71	H	0.576615	0.002070	-0.093417
H72	H	1.022038	-0.016656	0.578637
H73	H	0.419586	0.068354	0.153395
H74	H	0.575632	0.001414	0.090999
O75	O	0.428771	-0.016343	-0.087736
H76	H	0.489041	-0.045062	-0.085466
O77	O	0.390146	0.172135	-0.083762
H78	H	0.441440	0.186791	-0.125949
O79	O	0.548247	0.174040	0.083424
H80	H	0.617451	0.175018	0.083961
H81	H	0.432433	0.000215	0.091792
O82	O	0.569681	0.076286	0.174240
H83	H	0.603294	0.113183	0.154952
O84	O	1.153042	-0.101328	-0.000015
H85	H	1.205580	-0.136687	-0.000031
O86	O	0.835695	-0.073096	-0.000006
H87	H	0.832538	-0.045706	-0.062646
H88	H	0.418315	0.064929	-0.153486
O89	O	1.145767	0.047819	0.587454
H90	H	1.119090	0.015138	0.630076
H91	H	0.774591	-0.349195	-0.000078
H92	H	0.853834	-0.190513	0.000000
H93	H	1.128580	0.057700	0.420527
H94	H	0.905225	0.008609	0.420797
O95	O	0.388790	0.171962	0.082503
H96	H	0.353398	0.143132	0.123958
O97	O	1.222402	-0.504836	-0.000050
H98	H	1.225562	-0.532229	0.062587
O99	O	0.567614	0.077973	-0.174134
H100	H	0.600223	0.115213	-0.154239
O101	O	1.150878	-0.224796	-0.000017
H102	H	1.204490	-0.198878	0.000001
O103	O	0.752373	-0.463006	-0.000088
H104	H	0.748212	-0.489745	0.062550
O105	O	0.823902	-0.743062	-0.000052
H106	H	0.835901	-0.790500	-0.000048
H107	H	1.123119	-0.653893	-0.000057
O108	O	0.832863	0.114383	0.587760
H109	H	0.838552	0.076043	0.633035
H110	H	0.909197	0.005579	0.580375
O111	O	1.224574	-0.381377	-0.000061
H112	H	1.277107	-0.416740	-0.000079
O113	O	1.141257	-0.771306	-0.000069
H114	H	1.144444	-0.798687	-0.062714
H115	H	0.846112	-0.629251	-0.000064
H116	H	0.854366	0.116878	0.420247
O117	O	0.933250	0.182831	0.589206
H118	H	0.989510	0.178784	0.634687
O119	O	0.933621	0.183324	0.412518
H120	H	0.940497	0.211710	0.472598
H121	H	1.090449	0.134667	0.578092
O122	O	1.096248	0.147824	0.410462
H123	H	1.044443	0.167034	0.365151
H124	H	1.016717	-0.017882	0.419409
H125	H	0.542990	0.165817	-0.062960
