data_functionalizedCrystal
_audit_creation_method	'MofGen! by Chris Wilmer'
_symmetry_space_group_name_H-M	'P1'
_symmetry_Int_Tables_number	1
_symmetry_cell_setting	triclinic
loop_
_symmetry_equiv_pos_as_xyz
  x,y,z
_cell_length_a	12.996460
_cell_length_b	27.732046
_cell_length_c	27.731989
_cell_angle_alpha	82.630338
_cell_angle_beta	89.987984
_cell_angle_gamma	90.005040
loop_
_atom_site_label
_atom_site_type_symbol
_atom_site_fract_x
_atom_site_fract_y
_atom_site_fract_z
O1	O	0.085433	-0.640913	-0.057516
O2	O	0.085469	-0.500118	-0.066263
O3	O	0.085428	-0.574903	0.008509
O4	O	0.085475	-0.566128	-0.132288
O5	O	-0.085706	-0.574902	0.008514
O6	O	-0.085664	-0.500116	-0.066258
O7	O	-0.085700	-0.640912	-0.057511
Cu8	Cu	-0.101308	-0.570514	-0.061884
Cu9	Cu	0.101077	-0.570515	-0.061890
O10	O	-0.085659	-0.566126	-0.132283
C11	C	-0.000093	-0.482110	-0.066077
C12	C	-0.000080	-0.428455	-0.065524
N13	N	-0.243655	-0.570516	-0.061880
C14	C	-0.000104	-0.089631	-0.106231
C15	C	-0.000110	0.112028	-0.104181
O16	O	-0.000142	0.143292	-0.141403
N17	N	-0.000122	0.131142	-0.059845
C18	C	-0.000140	0.099839	-0.016018
O19	O	-0.000161	0.120724	0.021740
C20	C	-0.000142	-0.101820	-0.018068
C21	C	-0.000119	-0.120931	-0.062408
C22	C	-0.000083	-0.108743	-0.150567
C23	C	-0.000076	-0.159155	-0.151079
C24	C	-0.000090	-0.190455	-0.107255
C25	C	-0.000112	-0.171343	-0.062920
C26	C	-0.000167	-0.133123	0.025758
C27	C	-0.000170	-0.183540	0.025242
C28	C	-0.000147	-0.202651	-0.019098
C29	C	-0.000120	-0.253055	-0.019608
N30	N	-0.000107	-0.272169	-0.063944
C31	C	-0.000093	-0.240869	-0.107768
C32	C	-0.000137	0.205713	-0.014945
C33	C	-0.000135	0.256127	-0.014432
C34	C	-0.000107	0.268313	-0.102596
C35	C	-0.000101	0.217898	-0.103108
C36	C	-0.000125	0.186598	-0.059281
C37	C	-0.000077	-0.346738	-0.108840
C38	C	-0.000066	-0.397155	-0.109348
C39	C	-0.000099	-0.409337	-0.021185
C40	C	-0.000105	-0.358924	-0.020676
C41	C	-0.000098	-0.327626	-0.064508
O42	O	-0.000099	-0.284347	0.017594
O43	O	-0.000094	-0.261764	-0.145520
C44	C	-0.000111	-0.039219	-0.105719
C45	C	-0.000133	-0.020107	-0.061384
C46	C	-0.000148	-0.051407	-0.017560
C47	C	-0.000131	0.030307	-0.060871
C48	C	-0.000116	0.061607	-0.104695
C49	C	-0.000104	0.042492	-0.149031
C50	C	-0.000097	-0.007919	-0.149543
C51	C	-0.000160	-0.032293	0.026776
C52	C	-0.000166	0.018119	0.027285
C53	C	-0.000151	0.049419	-0.016539
N54	N	0.243424	-0.570517	-0.061890
C55	C	0.663239	-0.570514	-0.061886
C56	C	0.546434	-0.570513	-0.061888
C57	C	0.453335	-0.570515	-0.061888
C58	C	0.336523	-0.570515	-0.061891
C59	C	-0.000142	-0.574722	0.026519
C60	C	-0.000152	-0.574181	0.080176
C61	C	-0.000130	0.341081	-0.057699
C62	C	-0.000120	0.287427	-0.058256
C63	C	0.093185	-0.570775	0.412890
C64	C	0.093204	-0.568719	0.614549
O65	O	0.172540	-0.568432	0.640618
N66	N	-0.000080	-0.568462	0.639769
C67	C	-0.093375	-0.568717	0.614571
O68	O	-0.172719	-0.568447	0.640648
C69	C	-0.093393	-0.570770	0.412912
C70	C	-0.000103	-0.571031	0.387696
C71	C	0.186468	-0.571035	0.387674
C72	C	0.186462	-0.571552	0.337262
C73	C	0.093173	-0.571808	0.312068
C74	C	-0.000109	-0.571548	0.337284
C75	C	-0.186688	-0.571021	0.387714
C76	C	-0.186684	-0.571533	0.337296
C77	C	-0.093394	-0.571794	0.312080
C78	C	-0.093403	-0.572321	0.261678
N79	N	-0.000119	-0.572577	0.236459
C80	C	0.093169	-0.572320	0.261653
C81	C	-0.093359	-0.567641	0.720444
C82	C	-0.093355	-0.567128	0.770859
C83	C	0.093225	-0.567129	0.770834
C84	C	0.093220	-0.567644	0.720419
C85	C	-0.000075	-0.567897	0.695225
C86	C	0.093150	-0.573406	0.155786
C87	C	0.093136	-0.573925	0.105370
C88	C	-0.093443	-0.573922	0.105399
C89	C	-0.093430	-0.573406	0.155811
C90	C	-0.000125	-0.573146	0.181003
O91	O	-0.172698	-0.572602	0.235578
O92	O	0.172501	-0.572580	0.235566
C93	C	0.093191	-0.570258	0.463302
C94	C	-0.000092	-0.569998	0.488518
C95	C	-0.093380	-0.570254	0.463324
C96	C	-0.000088	-0.569485	0.538933
C97	C	0.093201	-0.569229	0.564128
C98	C	0.186485	-0.569485	0.538908
C99	C	0.186479	-0.570002	0.488496
C100	C	-0.186664	-0.569998	0.488544
C101	C	-0.186651	-0.569482	0.538955
C102	C	-0.093362	-0.569225	0.564150
C103	C	-0.000086	-0.566313	0.849708
C104	C	-0.000067	-0.566872	0.796054
H105	H	-0.000047	-0.412713	-0.145456
C106	C	-0.000086	0.196877	-0.151881
C107	C	-0.088938	0.208838	-0.188173
C108	C	-0.088925	0.187821	-0.236949
C109	C	-0.000060	0.154843	-0.249432
C110	C	0.088800	0.142880	-0.213139
C111	C	0.088787	0.163897	-0.164363
H112	H	-0.154728	0.233253	-0.178933
H113	H	-0.154705	0.196677	-0.263815
H114	H	-0.000050	0.139284	-0.285538
H115	H	0.154589	0.118466	-0.222379
H116	H	0.154567	0.155041	-0.137497
H117	H	-0.169335	-0.567848	0.699936
H118	H	-0.262625	-0.569273	0.559483
H119	H	0.169107	-0.574138	0.084841
H120	H	0.262428	-0.571763	0.316735
H121	H	-0.000057	-0.174711	-0.187185
H122	H	-0.000095	0.293806	-0.138279
C123	C	-0.000060	-0.074319	-0.198779
C124	C	0.088816	-0.037985	-0.210556
C125	C	0.088849	-0.003564	-0.258772
C126	C	0.000005	-0.005478	-0.295210
C127	C	-0.088879	-0.041813	-0.283433
C128	C	-0.088911	-0.076234	-0.235217
H129	H	0.154590	-0.036567	-0.183582
H130	H	0.154646	0.023334	-0.267490
H131	H	0.000029	0.020002	-0.330902
H132	H	-0.154652	-0.043231	-0.310407
H133	H	-0.154709	-0.103132	-0.226500
C134	C	0.195784	-0.573124	0.183493
C135	C	0.272723	-0.615190	0.182354
C136	C	0.375355	-0.614912	0.210062
C137	C	0.401049	-0.572568	0.238907
C138	C	0.324109	-0.530499	0.240047
C139	C	0.221476	-0.530777	0.212339
H140	H	0.253704	-0.646538	0.161000
H141	H	0.432312	-0.646055	0.209218
H142	H	0.477024	-0.572362	0.259418
H143	H	0.343127	-0.499151	0.261401
H144	H	0.164520	-0.499635	0.213183
H145	H	-0.262632	-0.570207	0.468035
H146	H	-0.262658	-0.571732	0.316785
C147	C	0.289102	-0.570284	0.460762
C148	C	0.366055	-0.612202	0.473498
C149	C	0.468684	-0.612483	0.445768
C150	C	0.494360	-0.570845	0.405302
C151	C	0.417404	-0.528923	0.392564
C152	C	0.314775	-0.528643	0.420294
H153	H	0.347050	-0.643028	0.503456
H154	H	0.525651	-0.643516	0.455198
H155	H	0.570332	-0.571053	0.384775
H156	H	0.436409	-0.498097	0.362607
H157	H	0.257808	-0.497609	0.410864
C158	C	-0.000061	-0.312315	-0.157054
C159	C	-0.088922	-0.275987	-0.168835
C160	C	-0.088897	-0.241564	-0.217049
C161	C	-0.000012	-0.243470	-0.253483
C162	C	0.088856	-0.279800	-0.241703
C163	C	0.088832	-0.314223	-0.193489
H164	H	-0.154727	-0.274575	-0.141863
H165	H	-0.154684	-0.214670	-0.225768
H166	H	0.000007	-0.217988	-0.289174
H167	H	0.154661	-0.281212	-0.268675
H168	H	0.154618	-0.341116	-0.184770
C169	C	-0.196055	-0.574199	0.077677
C170	C	-0.272993	-0.532132	0.078807
C171	C	-0.375605	-0.532404	0.051082
C172	C	-0.401279	-0.574744	0.022227
C173	C	-0.324339	-0.616814	0.021096
C174	C	-0.221727	-0.616542	0.048821
H175	H	-0.253990	-0.500787	0.100168
H176	H	-0.432561	-0.501260	0.051919
H177	H	-0.477238	-0.574945	0.001703
H178	H	-0.343342	-0.648159	-0.000264
H179	H	-0.164771	-0.647686	0.047984
H180	H	-0.000137	0.271683	0.021673
C181	C	0.289104	-0.569202	0.566628
C182	C	0.314745	-0.610836	0.607095
C183	C	0.417358	-0.610549	0.634818
C184	C	0.494328	-0.568627	0.622073
C185	C	0.468688	-0.526990	0.581604
C186	C	0.366076	-0.527277	0.553882
H187	H	0.257765	-0.641871	0.616531
H188	H	0.436337	-0.641372	0.664776
H189	H	0.570288	-0.568415	0.642595
H190	H	0.525668	-0.495955	0.572168
H191	H	0.347096	-0.496454	0.523924
H192	H	-0.262655	-0.570810	0.408237
C193	C	-0.000150	0.171288	0.033270
C194	C	-0.089020	0.173195	0.069712
C195	C	-0.089026	0.138773	0.117927
C196	C	-0.000163	0.102444	0.129699
C197	C	0.088713	0.100535	0.093255
C198	C	0.088719	0.134957	0.045041
H199	H	-0.154807	0.200089	0.060998
H200	H	-0.154819	0.140186	0.144904
H201	H	-0.000168	0.076963	0.165390
H202	H	0.154501	0.073641	0.101969
H203	H	0.154512	0.133544	0.018063
H204	H	-0.169394	-0.573198	0.176344
H205	H	-0.000186	-0.117572	0.061864
H206	H	0.169185	-0.567856	0.699891
C207	C	-0.000191	-0.217969	0.073453
C208	C	-0.089072	-0.216068	0.109890
C209	C	-0.089091	-0.250496	0.158101
C210	C	-0.000229	-0.286826	0.169874
C211	C	0.088659	-0.288728	0.133436
C212	C	0.088678	-0.254300	0.085225
H213	H	-0.154860	-0.189174	0.101176
H214	H	-0.154892	-0.249088	0.185075
H215	H	-0.000242	-0.312311	0.205562
H216	H	0.154446	-0.315623	0.142150
H217	H	0.154479	-0.255709	0.058251
H218	H	-0.000109	-0.343363	0.015428
C219	C	-0.000118	-0.443774	0.027019
C220	C	-0.088992	-0.480112	0.038783
C221	C	-0.089019	-0.514551	0.086987
C222	C	-0.000174	-0.512651	0.123427
C223	C	0.088706	-0.476311	0.111663
C224	C	0.088734	-0.441872	0.063460
H225	H	-0.154766	-0.481520	0.011808
H226	H	-0.154815	-0.541453	0.095695
H227	H	-0.000194	-0.538145	0.159110
H228	H	0.154481	-0.474903	0.138639
H229	H	0.154529	-0.414971	0.054752
C230	C	-0.000167	-0.066718	0.074987
C231	C	-0.089037	-0.064815	0.111430
C232	C	-0.089036	-0.099238	0.159644
C233	C	-0.000165	-0.135563	0.171415
C234	C	0.088711	-0.137467	0.134971
C235	C	0.088711	-0.103044	0.086757
H236	H	-0.154830	-0.037924	0.102717
H237	H	-0.154829	-0.097828	0.186622
H238	H	-0.000165	-0.161044	0.207106
H239	H	0.154505	-0.164358	0.143684
H240	H	0.154503	-0.104454	0.059779
H241	H	-0.000080	-0.023475	-0.185649
C242	C	0.195846	-0.566844	0.798553
C243	C	0.221496	-0.608480	0.839017
C244	C	0.324110	-0.608192	0.866738
C245	C	0.401075	-0.566268	0.853994
C246	C	0.375427	-0.524629	0.813527
C247	C	0.272812	-0.524917	0.785807
H248	H	0.164520	-0.639517	0.848453
H249	H	0.343096	-0.639016	0.896693
H250	H	0.477037	-0.566055	0.874514
H251	H	0.432403	-0.493592	0.804092
H252	H	0.253826	-0.494093	0.755851
H253	H	-0.000088	0.067986	-0.184714
H254	H	-0.000176	0.033675	0.063394
H255	H	0.262438	-0.570825	0.408182
H256	H	-0.169321	-0.566923	0.791387
