data_functionalizedCrystal
_audit_creation_method	'MofGen! by Chris Wilmer'
_symmetry_space_group_name_H-M	'P1'
_symmetry_Int_Tables_number	1
_symmetry_cell_setting	triclinic
loop_
_symmetry_equiv_pos_as_xyz
  x,y,z
_cell_length_a	17.077404
_cell_length_b	16.120484
_cell_length_c	17.077396
_cell_angle_alpha	92.868746
_cell_angle_beta	89.980499
_cell_angle_gamma	92.925780
loop_
_atom_site_label
_atom_site_type_symbol
_atom_site_fract_x
_atom_site_fract_y
_atom_site_fract_z
Zn1	Zn	1.184194	-0.331902	-0.459673
Zn2	Zn	1.684194	0.168098	0.040327
Zn3	Zn	1.177439	-0.471326	-0.335057
Zn4	Zn	1.677439	0.028674	0.164943
Zn5	Zn	1.052925	-0.331932	-0.328422
Zn6	Zn	1.552925	0.168068	0.171578
Zn7	Zn	1.046234	-0.471277	-0.466278
Zn8	Zn	1.546234	0.028723	0.033722
O9	O	1.115198	-0.401609	-0.397358
O10	O	1.615198	0.098391	0.102642
O11	O	1.293145	-0.350406	-0.443155
O12	O	1.793145	0.149594	0.056845
O13	O	1.160895	-0.452868	-0.224331
O14	O	1.660895	0.047132	0.275669
O15	O	1.075965	-0.215262	-0.340292
O16	O	1.575965	0.284738	0.159708
O17	O	1.288181	-0.452840	-0.351600
O18	O	1.788181	0.047160	0.148400
O19	O	1.172408	-0.215241	-0.436721
O20	O	1.672408	0.284759	0.063279
O21	O	1.069415	-0.350456	-0.219457
O22	O	1.569415	0.149544	0.280543
O23	O	0.942191	-0.350408	-0.346697
O24	O	1.442191	0.149592	0.153303
O25	O	1.064562	-0.452756	-0.575247
O26	O	1.564562	0.047244	-0.075247
O27	O	0.937275	-0.452784	-0.447979
O28	O	1.437275	0.047216	0.052021
O29	O	1.165921	-0.350358	-0.570395
O30	O	1.665921	0.149642	-0.070395
O31	O	1.154407	-0.587986	-0.358004
O32	O	1.654407	-0.087986	0.141996
O33	O	1.058011	-0.587949	-0.454412
O34	O	1.558011	-0.087949	0.045588
C35	C	0.911251	-0.401594	-0.397335
C36	C	1.411251	0.098406	0.102665
C37	C	0.824000	-0.401608	-0.397345
C38	C	1.324000	0.098392	0.102655
C39	C	0.780467	-0.454996	-0.450006
C40	C	1.280467	0.045004	0.049994
C41	C	0.698487	-0.454997	-0.450019
C42	C	1.198487	0.045003	0.049981
C43	C	0.660041	-0.401615	-0.397366
C44	C	1.160041	0.098385	0.102634
C45	C	0.703580	-0.348221	-0.344703
C46	C	1.203580	0.151779	0.155297
C47	C	0.785559	-0.348216	-0.344694
C48	C	1.285559	0.151784	0.155306
C49	C	0.532709	-0.348238	-0.344722
C50	C	1.032709	0.151762	0.155278
C51	C	0.450724	-0.348244	-0.344729
C52	C	0.950724	0.151756	0.155271
C53	C	0.445637	-0.455019	-0.450047
C54	C	0.945637	0.044981	0.049953
C55	C	0.527616	-0.455014	-0.450038
C56	C	1.027616	0.044986	0.049962
C57	C	0.571149	-0.401621	-0.397374
C58	C	1.071149	0.098379	0.102626
C59	C	1.104771	-0.618218	-0.407662
C60	C	1.604771	-0.118218	0.092338
C61	C	1.100383	-0.710884	-0.412097
C62	C	1.600383	-0.210884	0.087903
C63	C	1.092374	-0.880545	-0.420209
C64	C	1.592374	-0.380545	0.079791
C65	C	1.138162	-0.921833	-0.374519
C66	C	1.638162	-0.421833	0.125481
C67	C	1.133706	-1.016239	-0.379033
C68	C	1.633706	-0.516239	0.120967
C69	C	1.096829	-0.786131	-0.415696
C70	C	1.596829	-0.286131	0.084304
C71	C	1.319941	-0.401625	-0.397381
C72	C	1.819941	0.098375	0.102619
C73	C	1.407191	-0.401632	-0.397390
C74	C	1.907191	0.098368	0.102610
C75	C	1.115248	-0.401548	-0.602099
C76	C	1.615248	0.098452	-0.102099
C77	C	1.115270	-0.401522	-0.689348
C78	C	1.615270	0.098478	-0.189348
C79	C	1.125687	-0.184155	-0.387030
C80	C	1.625687	0.315845	0.112970
C81	C	1.130156	-0.091489	-0.382629
C82	C	1.630156	0.408511	0.117371
C83	C	1.168049	-0.348199	-0.727812
C84	C	1.668049	0.151801	-0.227812
C85	C	1.168060	-0.348171	-0.809791
C86	C	1.668060	0.151829	-0.309791
C87	C	1.115295	-0.401471	-0.853305
C88	C	1.615295	0.098529	-0.353305
C89	C	1.062509	-0.454796	-0.814835
C90	C	1.562509	0.045204	-0.314835
C91	C	1.062495	-0.454819	-0.732857
C92	C	1.562495	0.045181	-0.232857
C93	C	1.062543	-0.454746	-0.985702
C94	C	1.562543	0.045254	-0.485702
C95	C	1.062558	-0.454725	-1.067686
C96	C	1.562558	0.045275	-0.567686
C97	C	1.168108	-0.348098	-1.062637
C98	C	1.668108	0.151902	-0.562637
C99	C	1.168094	-0.348121	-0.980659
C100	C	1.668094	0.151879	-0.480659
C101	C	1.115310	-0.401448	-0.942195
C102	C	1.615310	0.098552	-0.442195
C103	C	1.115196	-0.401610	-0.193410
C104	C	1.615196	0.098390	0.306590
C105	C	1.115338	-0.401402	-0.106150
C106	C	1.615338	0.098598	0.393850
H107	H	0.663045	-0.498472	-0.492900
H108	H	1.163045	0.001528	0.007100
H109	H	0.568152	-0.304752	-0.301844
H110	H	1.068152	0.195248	0.198156
C111	C	0.661286	-0.289498	-0.286786
C112	C	1.161286	0.210502	0.213214
N113	N	0.629431	-0.245268	-0.243160
N114	N	1.129431	0.254732	0.256840
C115	C	1.226096	-0.289563	-0.679954
C116	C	1.726096	0.210437	-0.179954
N117	N	1.269816	-0.245393	-0.643910
N118	N	1.769816	0.254607	-0.143910
C119	C	0.833445	-0.289487	-0.286762
C120	C	1.333445	0.210513	0.213238
N121	N	0.869512	-0.245249	-0.243126
N122	N	1.369512	0.254751	0.256874
C123	C	1.226123	-0.289513	-0.852098
C124	C	1.726123	0.210487	-0.352098
N125	N	1.269859	-0.245329	-0.883963
N126	N	1.769859	0.254671	-0.383963
H127	H	1.049831	-0.916096	-0.462712
H128	H	1.549831	-0.416096	0.037288
H129	H	1.211065	-0.304724	-0.945232
H130	H	1.711065	0.195276	-0.445232
C131	C	1.195635	-0.873804	-0.317088
C132	C	1.695635	-0.373804	0.182912
N133	N	1.238919	-0.837625	-0.273829
N134	N	1.738919	-0.337625	0.226171
C135	C	1.226171	-0.289437	-1.104949
C136	C	1.726171	0.210563	-0.604949
N137	N	1.269905	-0.245259	-1.136822
N138	N	1.769905	0.254741	-0.636822
H139	H	1.019590	-0.498124	-1.103113
H140	H	1.519590	0.001876	-0.603113
C141	C	1.004480	-0.513412	-0.943394
C142	C	1.504480	-0.013412	-0.443394
N143	N	0.960751	-0.557602	-0.911527
N144	N	1.460751	-0.057602	-0.411527
H145	H	0.811764	-0.498469	-0.492880
H146	H	1.311764	0.001531	0.007120
C147	C	0.569905	-0.513742	-0.507955
C148	C	1.069905	-0.013742	-0.007955
N149	N	0.601757	-0.557975	-0.551580
N150	N	1.101757	-0.057975	-0.051580
C151	C	0.397749	-0.513748	-0.507982
C152	C	0.897749	-0.013748	-0.007982
N153	N	0.361676	-0.557982	-0.551616
N154	N	0.861676	-0.057982	-0.051616
H155	H	0.419424	-0.304766	-0.301864
H156	H	0.919424	0.195234	0.198136
C157	C	1.004435	-0.513480	-0.690547
C158	C	1.504435	-0.013480	-0.190547
N159	N	0.960701	-0.557664	-0.658680
N160	N	1.460701	-0.057664	-0.158680
H161	H	1.019544	-0.498191	-0.850270
H162	H	1.519544	0.001809	-0.350270
