data_functionalizedCrystal
_audit_creation_method	'MofGen! by Chris Wilmer'
_symmetry_space_group_name_H-M	'P1'
_symmetry_Int_Tables_number	1
_symmetry_cell_setting	triclinic
loop_
_symmetry_equiv_pos_as_xyz
  x,y,z
_cell_length_a	14.044220
_cell_length_b	16.109301
_cell_length_c	14.586319
_cell_angle_alpha	89.994786
_cell_angle_beta	90.001391
_cell_angle_gamma	88.325179
loop_
_atom_site_label
_atom_site_type_symbol
_atom_site_fract_x
_atom_site_fract_y
_atom_site_fract_z
O1	O	-1.257643	-0.200436	0.076149
O2	O	-0.757643	0.299564	0.576149
O3	O	-0.981677	-0.193203	0.076172
O4	O	-0.481677	0.306797	0.576172
O5	O	-1.127241	-0.076352	0.076150
O6	O	-0.627241	0.423648	0.576150
O7	O	-1.112079	-0.317286	0.076170
O8	O	-0.612079	0.182714	0.576170
O9	O	-1.127231	-0.076350	-0.076331
O10	O	-0.627231	0.423650	0.423669
O11	O	-0.981666	-0.193200	-0.076309
O12	O	-0.481666	0.306800	0.423691
O13	O	-1.257633	-0.200433	-0.076332
O14	O	-0.757633	0.299567	0.423668
Cu15	Cu	-1.119649	-0.196816	-0.090243
Cu16	Cu	-0.619649	0.303184	0.409757
Cu17	Cu	-1.119661	-0.196820	0.090083
Cu18	Cu	-0.619661	0.303180	0.590083
O19	O	-1.112069	-0.317284	-0.076311
O20	O	-0.612069	0.182716	0.423689
C21	C	-1.126622	-0.045330	-0.000091
C22	C	-0.626622	0.454670	0.499909
C23	C	-1.124781	0.047102	-0.000092
C24	C	-0.624781	0.547102	0.499908
C25	C	-0.946358	-0.190036	-0.000066
C26	C	-0.446358	0.309964	0.499934
C27	C	-0.841135	-0.180592	-0.000058
C28	C	-0.341135	0.319408	0.499942
C29	C	-1.292952	-0.203600	-0.000093
C30	C	-0.792952	0.296400	0.499907
C31	C	-1.398175	-0.213044	-0.000095
C32	C	-0.898175	0.286956	0.499905
C33	C	-0.648479	-0.163326	-0.000077
C34	C	-0.148479	0.336674	0.499923
C35	C	-0.590825	-0.230306	-0.000075
C36	C	-0.090825	0.269694	0.499925
C37	C	-0.483625	-0.220699	-0.000086
C38	C	0.016375	0.279301	0.499914
C39	C	-0.755690	-0.172932	-0.000066
C40	C	-0.255690	0.327068	0.499934
C41	C	-1.112688	-0.348306	-0.000068
C42	C	-0.612688	0.151694	0.499932
C43	C	-1.114529	-0.440738	-0.000061
C44	C	-0.614529	0.059262	0.499939
N45	N	-1.119647	-0.196814	-0.217075
N46	N	-0.619647	0.303186	0.282925
C47	C	-1.206874	0.263266	-0.000084
C48	C	-0.706874	0.763266	0.499916
C49	C	-1.205137	0.350116	-0.000076
C50	C	-0.705137	0.850116	0.499924
C51	C	-1.032429	0.343091	-0.000066
C52	C	-0.532429	0.843091	0.499934
C53	C	-1.034168	0.256243	-0.000067
C54	C	-0.534168	0.756243	0.499933
C55	C	-1.121393	0.216333	-0.000081
C56	C	-0.621393	0.716333	0.499919
C57	C	-1.117917	0.390031	-0.000072
C58	C	-0.617917	0.890031	0.499928
C59	C	-1.116032	0.484197	-0.000064
C60	C	-0.616032	0.984197	0.499936
C61	C	-1.123278	0.122161	-0.000087
C62	C	-0.623278	0.622161	0.499913
C63	C	-1.184125	-0.145093	-0.452091
C64	C	-0.684125	0.354907	0.047909
C65	C	-1.184128	-0.145092	-0.548072
C66	C	-0.684128	0.354908	-0.048072
C67	C	-1.055186	-0.248539	-0.548063
C68	C	-0.555186	0.251461	-0.048063
C69	C	-1.055179	-0.248536	-0.452083
C70	C	-0.555179	0.251464	0.047917
C71	C	-1.119654	-0.196814	-0.404100
C72	C	-0.619654	0.303186	0.095900
C73	C	-1.119663	-0.196816	-0.596061
C74	C	-0.619663	0.303184	-0.096061
C75	C	-1.119666	-0.196814	-0.700128
C76	C	-0.619666	0.303186	-0.200128
C77	C	-1.119651	-0.196815	-0.300026
C78	C	-0.619651	0.303185	0.199974
N79	N	-1.119670	-0.196816	0.216915
N80	N	-0.619670	0.303184	0.716915
H81	H	-0.621976	-0.294863	-0.000066
H82	H	-0.121976	0.205137	0.499934
H83	H	-1.002675	-0.290653	-0.413006
H84	H	-0.502675	0.209347	0.086994
F85	F	-0.607765	-0.078950	-0.000087
F86	F	-0.107765	0.421050	0.499913
F87	F	-0.986573	-0.303584	-0.599136
F88	F	-0.486573	0.196416	-0.099136
H89	H	-1.277898	0.230774	-0.000094
H90	H	-0.777898	0.730774	0.499906
F91	F	-1.252744	-0.090041	-0.599145
F92	F	-0.752744	0.409959	-0.099145
H93	H	-1.236623	-0.102977	-0.413025
H94	H	-0.736623	0.397023	0.086975
H95	H	-1.274744	0.388326	-0.000077
H96	H	-0.774744	0.888326	0.499923
F97	F	-0.939603	0.385574	-0.000050
F98	F	-0.439603	0.885574	0.499950
H99	H	-0.964554	0.218029	-0.000061
H100	H	-0.464554	0.718029	0.499939
