data_functionalizedCrystal
_audit_creation_method	'MofGen! by Chris Wilmer'
_symmetry_space_group_name_H-M	'P1'
_symmetry_Int_Tables_number	1
_symmetry_cell_setting	triclinic
loop_
_symmetry_equiv_pos_as_xyz
  x,y,z
_cell_length_a	8.634740
_cell_length_b	8.559649
_cell_length_c	7.681481
_cell_angle_alpha	85.086760
_cell_angle_beta	96.632922
_cell_angle_gamma	85.174486
loop_
_atom_site_label
_atom_site_type_symbol
_atom_site_fract_x
_atom_site_fract_y
_atom_site_fract_z
O1	O	0.035284	-2.099591	-0.146401
O2	O	-0.042928	-1.646427	-0.146408
O3	O	0.218114	-1.851558	-0.146402
O4	O	-0.225758	-1.894460	-0.146408
O5	O	0.250309	-1.876796	0.146456
O6	O	-0.010733	-1.671665	0.146450
O7	O	0.067479	-2.124829	0.146457
Zn8	Zn	0.033484	-1.902254	0.192951
Zn9	Zn	-0.008933	-1.869002	-0.192902
O10	O	-0.193563	-1.919698	0.146451
C11	C	-0.032757	-1.600429	0.000020
C12	C	-0.050400	-1.425765	0.000017
C13	C	0.290510	-1.854458	0.000024
C14	C	0.458261	-1.825479	0.000014
C15	C	-0.265960	-1.916798	0.000021
C16	C	-0.433711	-1.945776	0.000019
C17	C	0.057308	-2.170827	0.000025
C18	C	0.074950	-2.345490	0.000016
N19	N	0.062436	-1.924960	0.456286
N20	N	-0.037871	-1.846307	-0.456237
H21	H	0.494108	-1.700318	0.000006
C22	C	0.518195	-2.112573	0.000106
C23	C	0.355798	-2.109133	0.000142
C24	C	0.311441	-2.262754	0.000245
H25	H	0.546965	-2.157099	-0.101990
H26	H	0.569483	-2.174584	0.102276
H27	H	0.304528	-2.047145	-0.102018
H28	H	0.326989	-2.064636	0.102230
H29	H	0.362729	-2.324765	0.102415
H30	H	0.340220	-2.307268	-0.101852
H31	H	0.201253	-2.260442	0.000286
H32	H	0.164817	-2.005267	0.531494
C33	C	-0.211654	-1.339515	-0.000079
C34	C	-0.323758	-1.448568	-0.000120
C35	C	-0.472319	-1.369172	-0.000233
H36	H	-0.212869	-1.284383	0.102015
H37	H	-0.235182	-1.266826	-0.102251
H38	H	-0.300236	-1.521229	0.102042
H39	H	-0.322593	-1.503705	-0.102206
H40	H	-0.495848	-1.296483	-0.102405
H41	H	-0.473518	-1.314042	0.101862
H42	H	-0.548401	-1.443150	-0.000277
C43	C	-0.174602	-1.739464	0.443598
C44	C	-0.315463	-1.791880	0.488276
C45	C	-0.441455	-1.693508	0.396011
H46	H	-0.167581	-1.634718	0.473667
H47	H	-0.171549	-1.741950	0.320620
H48	H	-0.318515	-1.789379	0.611226
H49	H	-0.322535	-1.896613	0.458203
H50	H	-0.438401	-1.695993	0.273034
H51	H	-0.434418	-1.588766	0.426087
H52	H	-0.537044	-1.729066	0.426300
H53	H	0.195764	-1.410387	0.000009
