data_functionalizedCrystal
_audit_creation_method	'MofGen! by Chris Wilmer'
_symmetry_space_group_name_H-M	'P1'
_symmetry_Int_Tables_number	1
_symmetry_cell_setting	triclinic
loop_
_symmetry_equiv_pos_as_xyz
  x,y,z
_cell_length_a	10.489716
_cell_length_b	10.489716
_cell_length_c	8.965430
_cell_angle_alpha	90.003741
_cell_angle_beta	89.999270
_cell_angle_gamma	95.470864
loop_
_atom_site_label
_atom_site_type_symbol
_atom_site_fract_x
_atom_site_fract_y
_atom_site_fract_z
O1	O	-0.179810	1.694056	0.124035
O2	O	-0.196735	1.322855	0.124041
O3	O	-0.002672	1.516919	0.124020
O4	O	-0.373873	1.499993	0.124055
O5	O	-0.002688	1.516901	-0.124058
O6	O	-0.196751	1.322838	-0.124038
O7	O	-0.179826	1.694039	-0.124044
Cu8	Cu	-0.188290	1.508437	-0.146693
Cu9	Cu	-0.188271	1.508457	0.146689
O10	O	-0.373889	1.499975	-0.124023
C11	C	-0.195472	1.275314	0.000002
C12	C	-0.191667	1.133684	0.000004
C13	C	-0.310673	1.035999	0.000019
C14	C	-0.247796	0.958650	-0.122310
C15	C	-0.247752	0.958674	0.122277
C16	C	-0.128840	1.058200	-0.122425
C17	C	-0.128813	1.058229	0.122271
C18	C	-0.065848	0.980929	-0.000088
C19	C	-0.421413	1.501256	0.000020
C20	C	-0.563044	1.505061	0.000034
C21	C	-0.660728	1.386055	0.000015
C22	C	-0.738090	1.448949	0.122318
C23	C	-0.738041	1.448959	-0.122269
C24	C	-0.638540	1.567905	0.122438
C25	C	-0.638486	1.567897	-0.122259
C26	C	-0.715798	1.630879	0.000074
C27	C	0.044852	1.515638	-0.000020
C28	C	0.186483	1.511833	-0.000024
C29	C	-0.181089	1.741580	-0.000002
C30	C	-0.184894	1.883210	0.000006
N31	N	-0.188303	1.508431	-0.353042
C32	C	-0.278751	1.419429	-0.549742
C33	C	-0.163608	1.392584	-0.450288
C34	C	-0.303436	1.535219	-0.450288
C35	C	-0.073047	1.481570	-0.549697
C36	C	-0.212951	1.624257	-0.549705
C37	C	-0.097725	1.597459	-0.450296
N38	N	-0.188249	1.508473	0.353039
H39	H	-0.298006	0.915193	0.225680
C40	C	-0.748806	1.770815	0.000153
H41	H	-0.714414	1.812896	0.087123
H42	H	-0.713192	1.813367	-0.085907
H43	H	-0.839192	1.772508	-0.000673
C44	C	-0.796763	1.381057	-0.261963
H45	H	-0.778270	1.294143	-0.261792
H46	H	-0.886904	1.384672	-0.261453
H47	H	-0.761319	1.422452	-0.348826
C48	C	-0.241207	1.756509	-0.608762
H49	H	-0.323107	1.775401	-0.574788
H50	H	-0.177775	1.819932	-0.573234
H51	H	-0.240204	1.755774	-0.714714
C52	C	-0.381989	1.317666	-0.608742
H53	H	-0.364240	1.235432	-0.574700
H54	H	-0.463632	1.335874	-0.573244
H55	H	-0.381763	1.318897	-0.714695
C56	C	-0.796816	1.381123	0.262046
H57	H	-0.839439	1.440145	0.319638
H58	H	-0.856400	1.311771	0.232700
H59	H	-0.730805	1.349625	0.320028
C60	C	-0.135402	1.260292	-0.391280
H61	H	-0.199762	1.197132	-0.425321
H62	H	-0.054216	1.240663	-0.426779
H63	H	-0.134857	1.261461	-0.285327
C64	C	-0.434992	1.565814	-0.391289
H65	H	-0.424915	1.641723	-0.332961
H66	H	-0.490268	1.577855	-0.472967
H67	H	-0.470945	1.496731	-0.331514
C68	C	0.005737	1.699161	-0.391658
H69	H	-0.033433	1.760208	-0.333320
H70	H	0.065129	1.658949	-0.331991
H71	H	0.049332	1.741082	-0.473494
H72	H	0.024364	1.458815	-0.593181
C73	C	-0.579668	1.635692	-0.261948
H74	H	-0.521256	1.706001	-0.232567
H75	H	-0.535680	1.577075	-0.318530
H76	H	-0.645788	1.665840	-0.320925
H77	H	0.037744	0.956508	-0.000168
C78	C	-0.061037	1.116700	-0.262284
H79	H	-0.063940	1.206942	-0.261458
H80	H	0.025655	1.097515	-0.262650
H81	H	-0.103021	1.081745	-0.349036
H82	H	-0.078607	1.101737	0.225684
H83	H	-0.595238	1.618117	0.225964
H84	H	-0.636062	1.282540	0.000144
H85	H	-0.414190	1.060659	-0.000086
H86	H	-0.298040	0.915156	-0.225718
