data_functionalizedCrystal
_audit_creation_method	'MofGen! by Chris Wilmer'
_symmetry_space_group_name_H-M	'P1'
_symmetry_Int_Tables_number	1
_symmetry_cell_setting	triclinic
loop_
_symmetry_equiv_pos_as_xyz
  x,y,z
_cell_length_a	14.044220
_cell_length_b	14.044220
_cell_length_c	16.776229
_cell_angle_alpha	90.004217
_cell_angle_beta	90.000907
_cell_angle_gamma	93.188878
loop_
_atom_site_label
_atom_site_type_symbol
_atom_site_fract_x
_atom_site_fract_y
_atom_site_fract_z
O1	O	1.277170	0.230166	0.066207
O2	O	1.000498	0.221860	0.066227
O3	O	1.134681	0.087677	0.066209
O4	O	1.142987	0.364349	0.066224
O5	O	1.134665	0.087675	-0.066367
O6	O	1.000482	0.221858	-0.066350
O7	O	1.277153	0.230164	-0.066370
Zn8	Zn	1.138815	0.226011	-0.087409
Zn9	Zn	1.138837	0.226013	0.087266
O10	O	1.142970	0.364347	-0.066352
C11	C	0.964868	0.218223	-0.000059
C12	C	0.858725	0.207379	-0.000052
C13	C	0.664388	0.187553	-0.000069
C14	C	0.613258	0.264467	-0.000068
C15	C	0.505122	0.253435	-0.000077
C16	C	0.772534	0.198583	-0.000059
C17	C	1.131037	0.052054	-0.000079
C18	C	1.120193	-0.054088	-0.000079
C19	C	1.100366	-0.248426	-0.000067
C20	C	1.177281	-0.299556	-0.000070
C21	C	1.166249	-0.407692	-0.000063
C22	C	1.111397	-0.140280	-0.000074
C23	C	1.312783	0.233800	-0.000082
C24	C	1.418926	0.244645	-0.000085
C25	C	1.146614	0.399969	-0.000062
C26	C	1.157459	0.506112	-0.000057
N27	N	1.138807	0.226009	-0.206620
C28	C	1.201603	0.288844	-0.248335
C29	C	1.201613	0.288842	-0.331787
C30	C	1.138822	0.226008	-0.373523
C31	C	1.076023	0.163166	-0.331803
C32	C	1.076018	0.163164	-0.248352
C33	C	1.076042	0.163168	-0.668350
C34	C	1.076050	0.163177	-0.751807
C35	C	1.201638	0.288846	-0.751785
C36	C	1.201633	0.288844	-0.668335
C37	C	1.138837	0.225999	-0.626621
C38	C	1.138828	0.226002	-0.536133
C39	C	1.138826	0.226009	-0.464010
N40	N	1.138852	0.226008	0.206477
H41	H	1.251414	-0.262117	-0.000022
H42	H	0.626951	0.113425	-0.000077
H43	H	1.026239	-0.285863	-0.000059
H44	H	1.252750	0.340007	-0.365748
C45	C	1.269884	0.357106	-0.203170
C46	C	1.324897	0.412115	-0.257568
C47	C	1.387820	0.474999	-0.215993
H48	H	1.234581	0.397802	-0.170612
H49	H	1.310566	0.321746	-0.170633
H50	H	1.284220	0.447473	-0.290091
H51	H	1.360220	0.371445	-0.290127
H52	H	1.428502	0.439638	-0.183457
H53	H	1.352510	0.515688	-0.183437
H54	H	1.425160	0.512324	-0.252896
H55	H	1.252761	0.340014	-0.634357
C56	C	0.663347	0.363237	0.000007
C57	C	0.762200	0.354688	0.000045
C58	C	0.808377	0.445650	0.000136
H59	H	0.645529	0.397043	-0.046203
H60	H	0.645444	0.396930	0.046268
H61	H	0.780096	0.321010	-0.046210
H62	H	0.780046	0.320900	0.046252
H63	H	0.790473	0.479344	0.046396
H64	H	0.790551	0.479449	-0.046075
H65	H	0.875452	0.439863	0.000169
H66	H	1.252771	0.340015	-0.785758
C67	C	1.007839	0.094842	-0.796979
C68	C	0.952861	0.039784	-0.742590
C69	C	0.890028	-0.023179	-0.784174
H70	H	0.967119	0.130115	-0.829535
H71	H	1.043236	0.054191	-0.829519
H72	H	0.917467	0.080430	-0.710064
H73	H	0.993555	0.004491	-0.710032
H74	H	0.925426	-0.063830	-0.816714
H75	H	0.849315	0.012102	-0.816729
H76	H	0.852725	-0.060550	-0.747278
H77	H	1.024911	0.111996	-0.634397
C78	C	1.007885	0.095048	-0.377255
C79	C	1.021259	0.108558	-0.459267
C80	C	0.958495	0.045834	-0.501159
H81	H	1.020072	0.031193	-0.363707
H82	H	0.944043	0.107206	-0.363595
H83	H	1.085086	0.096393	-0.472921
H84	H	1.009065	0.172400	-0.472839
H85	H	0.894653	0.057992	-0.487499
H86	H	0.970687	-0.018017	-0.487605
H87	H	0.967555	0.054998	-0.556808
C88	C	1.007730	0.094905	-0.203203
C89	C	0.952723	0.039895	-0.257612
C90	C	0.889799	-0.022991	-0.216051
H91	H	1.043031	0.054210	-0.170647
H92	H	0.967044	0.130264	-0.170665
H93	H	0.993404	0.004539	-0.290137
H94	H	0.917401	0.080565	-0.290169
H95	H	0.849113	0.012367	-0.183513
H96	H	0.925108	-0.063680	-0.183497
H97	H	0.852463	-0.060317	-0.252962
