data_functionalizedCrystal
_audit_creation_method	'MofGen! by Chris Wilmer'
_symmetry_space_group_name_H-M	'P1'
_symmetry_Int_Tables_number	1
_symmetry_cell_setting	triclinic
loop_
_symmetry_equiv_pos_as_xyz
  x,y,z
_cell_length_a	12.759401
_cell_length_b	17.640280
_cell_length_c	17.637464
_cell_angle_alpha	87.849458
_cell_angle_beta	78.801896
_cell_angle_gamma	78.802151
loop_
_atom_site_label
_atom_site_type_symbol
_atom_site_fract_x
_atom_site_fract_y
_atom_site_fract_z
Zn1	Zn	1.611762	-0.389096	0.368309
Zn2	Zn	1.679944	-0.490416	0.215677
Zn3	Zn	1.463328	-0.363454	0.241331
Zn4	Zn	1.477077	-0.516042	0.342637
O5	O	1.558028	-0.439752	0.291989
O6	O	1.767828	-0.402544	0.348069
O7	O	1.673989	-0.452119	0.112806
O8	O	1.448729	-0.260594	0.279655
O9	O	1.817920	-0.476983	0.235931
O10	O	1.557784	-0.279434	0.372945
O11	O	1.514842	-0.358840	0.131654
O12	O	1.318131	-0.383688	0.254762
O13	O	1.472163	-0.520658	0.452317
O14	O	1.328232	-0.495794	0.329192
O15	O	1.571116	-0.427392	0.471177
O16	O	1.687322	-0.600077	0.211039
O17	O	1.538276	-0.618904	0.304316
C18	C	1.285061	-0.439740	0.291975
C19	C	1.168286	-0.439756	0.291984
C20	C	1.118752	-0.498188	0.330648
C21	C	1.009026	-0.498194	0.330662
C22	C	0.998378	-0.381333	0.253343
C23	C	1.108100	-0.381325	0.253333
C24	C	1.621714	-0.637046	0.252124
C25	C	1.649050	-0.721454	0.235095
C26	C	1.350730	-1.048153	0.421630
C27	C	1.376424	-1.127463	0.405605
C28	C	1.531687	-1.107813	0.308573
C29	C	1.506010	-1.028500	0.324593
C30	C	1.415529	-0.998677	0.381122
C31	C	1.570809	-0.979024	0.284085
C32	C	1.545129	-0.899718	0.300101
C33	C	1.454651	-0.869889	0.356625
C34	C	1.389850	-0.919371	0.397137
C35	C	1.661284	-1.008848	0.227553
C36	C	1.726083	-0.959372	0.187044
C37	C	1.700409	-0.880066	0.203064
C38	C	1.609931	-0.850236	0.259588
C39	C	1.765210	-0.830583	0.162551
C40	C	1.739531	-0.751277	0.178567
C41	C	1.584251	-0.770930	0.275604
C42	C	1.832061	-0.439765	0.292002
C43	C	1.948837	-0.439771	0.292008
C44	C	1.515568	-0.479743	0.490073
C45	C	1.497474	-0.496785	0.574485
C46	C	1.494117	-0.241691	0.332025
C47	C	1.466883	-0.157290	0.349086
C48	C	1.600365	-0.399861	0.094685
C49	C	1.618593	-0.382606	0.010317
C50	C	1.420458	-0.569360	0.683642
C51	C	1.437466	-0.553341	0.604325
C52	C	1.540504	-0.456230	0.623956
C53	C	1.523509	-0.472244	0.703275
C54	C	1.463485	-0.528809	0.733112
C55	C	1.566536	-0.431692	0.752745
C56	C	1.549538	-0.447702	0.832058
C57	C	1.489513	-0.504264	0.861901
C58	C	1.446487	-0.544819	0.812425
C59	C	1.626554	-0.375123	0.722908
C60	C	1.669581	-0.334572	0.772377
C61	C	1.652590	-0.350586	0.851691
C62	C	1.592565	-0.407147	0.881534
C63	C	1.695616	-0.310030	0.901168
C64	C	1.678618	-0.326040	0.980481
C65	C	1.575567	-0.423157	0.960847
H66	H	1.167751	-0.545765	0.362122
C67	C	0.955457	-0.561725	0.372651
C68	C	1.031660	-0.612902	0.406479
C69	C	0.982356	-0.671444	0.445159
H70	H	0.896211	-0.539523	0.411704
H71	H	0.929580	-0.588936	0.336881
H72	H	1.057521	-0.585695	0.442246
H73	H	1.090909	-0.635124	0.367443
H74	H	0.956480	-0.698654	0.409390
H75	H	0.923112	-0.649234	0.484208
H76	H	1.034055	-0.706178	0.468111
H77	H	1.526697	-0.469223	0.985141
H78	H	1.799750	-0.983665	0.141017
C79	C	1.645276	-0.357902	0.636763
C80	C	1.701099	-0.424914	0.595960
C81	C	1.718427	-0.409087	0.516601
H82	H	1.577206	-0.341170	0.621297
H83	H	1.687256	-0.318447	0.626073
H84	H	1.659119	-0.464357	0.606644
H85	H	1.769178	-0.441657	0.611402
H86	H	1.760407	-0.369631	0.505912
H87	H	1.650352	-0.392353	0.501143
H88	H	1.756312	-0.454549	0.488907
H89	H	1.148430	-0.333738	0.221849
H90	H	1.792296	-0.710992	0.145580
C91	C	1.355485	-0.630877	0.716068
C92	C	1.420927	-0.688748	0.751754
C93	C	1.361117	-0.745429	0.781627
H94	H	1.293702	-0.608168	0.752921
H95	H	1.332320	-0.652790	0.675264
H96	H	1.444076	-0.666836	0.792553
H97	H	1.482709	-0.711477	0.714916
H98	H	1.337952	-0.767342	0.740823
H99	H	1.299335	-0.722713	0.818477
H100	H	1.405513	-0.784704	0.805837
C101	C	1.734772	-0.273220	0.739825
C102	C	1.740474	-0.267891	0.659775
C103	C	1.800538	-0.211391	0.629761
H104	H	1.700237	-0.224771	0.763049
H105	H	1.806198	-0.286968	0.750533
H106	H	1.669062	-0.254138	0.649073
H107	H	1.775019	-0.316325	0.636530
H108	H	1.871964	-0.225140	0.640469
H109	H	1.765996	-0.162946	0.652991
H110	H	1.804423	-0.207773	0.575444
C111	C	0.933031	-0.317791	0.211494
C112	C	0.931885	-0.246049	0.243342
C113	C	0.871691	-0.187497	0.204815
H114	H	0.965433	-0.318411	0.158212
H115	H	0.860562	-0.326112	0.217050
H116	H	1.004341	-0.237730	0.237779
H117	H	0.899475	-0.245403	0.296620
H118	H	0.799222	-0.195818	0.210371
H119	H	0.904099	-0.188124	0.151535
H120	H	0.870897	-0.138814	0.226423
C121	C	1.486094	-0.738400	0.336981
C122	C	1.477495	-0.658360	0.342345
C123	C	1.387099	-0.628368	0.398880
H124	H	1.422044	-0.749104	0.323258
H125	H	1.494670	-0.761639	0.385422
H126	H	1.468911	-0.635129	0.293914
H127	H	1.541522	-0.647635	0.356077
H128	H	1.395675	-0.651608	0.447321
H129	H	1.323057	-0.639077	0.385152
H130	H	1.381258	-0.574060	0.402532
C131	C	1.470891	-0.521735	0.947996
C132	C	1.409093	-0.579937	0.963538
C133	C	1.391905	-0.596045	1.042839
H134	H	1.539006	-0.538540	0.963376
H135	H	1.433013	-0.476373	0.975868
H136	H	1.446972	-0.625290	0.935675
H137	H	1.340967	-0.563148	0.948176
H138	H	1.354028	-0.550683	1.070712
H139	H	1.460025	-0.612848	1.058212
H140	H	1.349966	-0.635531	1.053396
C141	C	1.291550	-0.887129	0.458525
C142	C	1.240285	-0.947430	0.490572
C143	C	1.149729	-0.917756	0.547117
H144	H	1.314463	-0.862861	0.497955
H145	H	1.241970	-0.850370	0.435708
H146	H	1.289855	-0.984175	0.513390
H147	H	1.217347	-0.971703	0.451162
H148	H	1.100149	-0.880996	0.524300
H149	H	1.172652	-0.893488	0.586541
H150	H	1.114929	-0.958664	0.568863
H151	H	1.838873	-0.854876	0.116520
H152	H	1.402399	-0.586352	0.564051
H153	H	1.605354	-1.132105	0.262546
C154	C	1.305968	-1.181062	0.449705
C155	C	1.221253	-1.137969	0.502650
C156	C	1.156338	-1.187319	0.543294
H157	H	1.276375	-1.206182	0.414456
H158	H	1.348994	-1.218646	0.476624
H159	H	1.178233	-1.100399	0.475733
H160	H	1.250814	-1.112850	0.537915
H161	H	1.199364	-1.224903	0.570213
H162	H	1.126753	-1.212436	0.508039
H163	H	1.098857	-1.158088	0.579226
H164	H	1.682191	-1.073425	0.214517
H165	H	1.713649	-0.293016	1.020761
C166	C	1.760598	-0.248497	0.868833
C167	C	1.709333	-0.177256	0.903299
C168	C	1.769155	-0.120552	0.873525
H169	H	1.832005	-0.262130	0.879569
H170	H	1.764530	-0.244716	0.814515
H171	H	1.705414	-0.181039	0.957604
H172	H	1.637931	-0.163599	0.892566
H173	H	1.773086	-0.116770	0.819207
H174	H	1.840559	-0.134192	0.884262
H175	H	1.734375	-0.072207	0.896900
H176	H	1.433739	-0.805311	0.369659
H177	H	1.397617	-0.590885	0.836718
H178	H	1.277058	-1.023872	0.467667
H179	H	1.589373	-0.410172	0.599652
