data_functionalizedCrystal
_audit_creation_method	'MofGen! by Chris Wilmer'
_symmetry_space_group_name_H-M	'P1'
_symmetry_Int_Tables_number	1
_symmetry_cell_setting	triclinic
loop_
_symmetry_equiv_pos_as_xyz
  x,y,z
_cell_length_a	16.992694
_cell_length_b	12.837942
_cell_length_c	16.053802
_cell_angle_alpha	92.838962
_cell_angle_beta	87.249047
_cell_angle_gamma	92.748582
loop_
_atom_site_label
_atom_site_type_symbol
_atom_site_fract_x
_atom_site_fract_y
_atom_site_fract_z
O1	O	1.059913	0.217066	-0.069322
O2	O	1.559913	0.717066	0.430678
O3	O	0.831447	0.214638	-0.069347
O4	O	1.331447	0.714638	0.430653
O5	O	0.940614	0.064530	-0.069330
O6	O	1.440614	0.564530	0.430670
O7	O	0.950746	0.367174	-0.069339
O8	O	1.450746	0.867174	0.430661
O9	O	0.934602	0.072756	0.069528
O10	O	1.434602	0.572756	0.569528
O11	O	0.825435	0.222864	0.069511
O12	O	1.325435	0.722864	0.569511
O13	O	1.053901	0.225292	0.069536
O14	O	1.553901	0.725292	0.569536
Zn15	Zn	0.938714	0.225384	0.091570
Zn16	Zn	1.438714	0.725384	0.591570
Zn17	Zn	0.946634	0.214546	-0.091381
Zn18	Zn	1.446634	0.714546	0.408619
O19	O	0.944734	0.375400	0.069519
O20	O	1.444734	0.875400	0.569519
C21	C	0.798996	0.215629	0.000079
C22	C	1.298996	0.715629	0.500079
C23	C	0.711256	0.206315	0.000070
C24	C	1.211256	0.706315	0.500070
C25	C	0.667730	0.296178	0.000068
C26	C	1.167730	0.796178	0.500068
C27	C	0.585288	0.287422	0.000079
C28	C	1.085288	0.787422	0.500079
C29	C	0.546375	0.188801	0.000087
C30	C	1.046375	0.688801	0.500087
C31	C	0.589907	0.098931	0.000092
C32	C	1.089907	0.598931	0.500092
C33	C	0.672346	0.107689	0.000086
C34	C	1.172346	0.607689	0.500086
C35	C	0.300064	0.152502	0.000111
C36	C	0.800064	0.652502	0.500111
C37	C	0.217618	0.143751	0.000114
C38	C	0.717618	0.643751	0.500114
C39	C	0.213006	0.332243	0.000103
C40	C	0.713006	0.832243	0.500103
C41	C	0.295447	0.340992	0.000092
C42	C	0.795447	0.840992	0.500092
C43	C	0.338972	0.251122	0.000101
C44	C	0.838972	0.751122	0.500101
N45	N	0.462107	0.179847	0.000097
N46	N	0.962107	0.679847	0.500097
N47	N	0.423238	0.260077	0.000098
N48	N	0.923238	0.760077	0.500098
C49	C	0.934185	0.029738	0.000098
C50	C	1.434185	0.529738	0.500098
C51	C	0.923977	-0.086184	0.000096
C52	C	1.423977	0.413816	0.500096
C53	C	1.046699	-0.316977	0.000092
C54	C	1.546699	0.183023	0.500092
C55	C	1.037111	-0.425897	0.000089
C56	C	1.537111	0.074103	0.500089
C57	C	0.895215	-0.412948	0.000082
C58	C	1.395215	0.087052	0.500082
C59	C	0.904802	-0.304027	0.000085
C60	C	1.404802	0.195973	0.500085
C61	C	0.980547	-0.256046	0.000091
C62	C	1.480547	0.243954	0.500091
C63	C	0.990134	-0.147123	0.000099
C64	C	1.490134	0.352877	0.500099
C65	C	0.848238	-0.134176	0.000086
C66	C	1.348238	0.365824	0.500086
C67	C	0.838650	-0.243097	0.000084
C68	C	1.338650	0.256903	0.500084
C69	C	1.086353	0.224300	0.000108
C70	C	1.586353	0.724300	0.500108
C71	C	1.174092	0.233614	0.000112
C72	C	1.674092	0.733614	0.500112
C73	C	0.951163	0.410191	0.000089
C74	C	1.451163	0.910191	0.500089
C75	C	0.961371	0.526114	0.000086
C76	C	1.461371	1.026114	0.500086
N77	N	0.933314	0.232780	0.216430
N78	N	1.433314	0.732780	0.716430
N79	N	0.952040	0.207141	-0.216241
N80	N	1.452040	0.707141	0.283759
C81	C	0.979785	0.168935	0.260131
C82	C	1.479785	0.668935	0.760131
C83	C	0.976016	0.174120	0.347537
C84	C	1.476016	0.674120	0.847537
C85	C	0.925779	0.243156	0.391240
C86	C	1.425779	0.743156	0.891240
C87	C	0.879303	0.307004	0.347533
C88	C	1.379303	0.807004	0.847533
C89	C	0.883068	0.301813	0.260129
C90	C	1.383068	0.801813	0.760129
C91	C	0.909329	0.265799	0.652647
C92	C	1.409329	0.765799	1.152647
C93	C	0.905569	0.270987	0.740058
C94	C	1.405569	0.770987	1.240058
C95	C	1.002281	0.138101	0.740056
C96	C	1.502281	0.638101	1.240056
C97	C	1.006046	0.132921	0.652650
C98	C	1.506046	0.632921	1.152650
C99	C	0.959566	0.196765	0.608950
C100	C	1.459566	0.696765	1.108950
N101	N	0.921927	0.248459	0.480584
N102	N	1.421927	0.748459	0.980584
N103	N	0.963414	0.191455	0.519608
N104	N	1.463414	0.691455	1.019608
H105	H	0.335492	0.079324	0.000119
H106	H	0.835492	0.579324	0.500119
H107	H	0.776981	-0.282179	0.000076
H108	H	1.276981	0.217821	0.500076
C109	C	0.894801	0.417361	0.838329
C110	C	1.394801	0.917361	1.338329
C111	C	0.850339	0.346876	0.788093
C112	C	1.350339	0.846876	1.288093
H113	H	0.860706	0.464213	0.867978
H114	H	1.360706	0.964213	1.367978
H115	H	0.921934	0.380084	0.876864
H116	H	1.421934	0.880084	1.376864
H117	H	0.931908	0.455601	0.804211
H118	H	1.431908	0.955601	1.304211
H119	H	0.813236	0.308631	0.822213
H120	H	1.313236	0.808631	1.322213
H121	H	0.823194	0.384157	0.749555
H122	H	1.323194	0.884157	1.249555
C123	C	0.754689	0.419605	0.071430
C124	C	1.254689	0.919605	0.571430
C125	C	0.710504	0.404584	0.000055
C126	C	1.210504	0.904584	0.500055
H127	H	0.781097	0.486530	0.071419
H128	H	1.281097	0.986530	0.571419
H129	H	0.720536	0.415147	0.119847
H130	H	1.220536	0.915147	0.619847
H131	H	0.792408	0.367333	0.071420
H132	H	1.292408	0.867333	0.571420
H133	H	0.672780	0.456852	0.000068
H134	H	1.172780	0.956852	0.500068
H135	H	0.744659	0.409052	-0.048374
H136	H	1.244659	0.909052	0.451626
H137	H	0.549853	0.360598	0.000077
H138	H	1.049853	0.860598	0.500077
H139	H	0.558216	0.018632	0.000110
H140	H	1.058216	0.518632	0.500110
H141	H	0.185938	0.063438	0.000120
H142	H	0.685938	0.563438	0.500120
H143	H	0.327125	0.421299	0.000076
H144	H	0.827125	0.921299	0.500076
C145	C	0.774415	-0.439687	-0.071323
C146	C	1.274415	0.060313	0.428677
C147	C	0.811964	-0.465709	0.000064
C148	C	1.311964	0.034291	0.500064
H149	H	0.723022	-0.472268	-0.071337
H150	H	1.223022	0.027732	0.428663
H151	H	0.770648	-0.366108	-0.071309
H152	H	1.270648	0.133892	0.428691
H153	H	0.804105	-0.463055	-0.119737
H154	H	1.304105	0.036945	0.380263
H155	H	0.782277	-0.442335	0.048479
H156	H	1.282277	0.057665	0.548479
H157	H	0.815727	-0.539304	0.000058
H158	H	1.315727	-0.039304	0.500058
H159	H	1.013856	0.122131	0.383118
H160	H	1.513856	0.622131	0.883118
C161	C	0.799925	0.038538	0.000082
C162	C	1.299925	0.538538	0.500082
C163	C	0.775517	-0.067198	0.000079
C164	C	1.275517	0.432802	0.500079
H165	H	0.755030	0.079885	0.000074
H166	H	1.255030	0.579885	0.500074
H167	H	0.828545	0.056587	0.048505
H168	H	1.328545	0.556587	0.548505
H169	H	0.832742	0.050854	-0.048341
H170	H	1.332742	0.550854	0.451659
H171	H	0.742704	-0.079516	0.048506
H172	H	1.242704	0.420484	0.548506
H173	H	0.746884	-0.085253	-0.048349
H174	H	1.246884	0.414747	0.451651
H175	H	0.871485	0.317785	0.617074
H176	H	1.371485	0.817785	1.117074
C177	C	1.074995	0.038097	0.268917
C178	C	1.574995	0.538097	0.768917
C179	C	1.035006	0.093045	0.212096
C180	C	1.535006	0.593045	0.712096
H181	H	1.109081	-0.008761	0.239262
H182	H	1.609081	0.491239	0.739262
H183	H	1.105149	0.085913	0.302996
H184	H	1.605149	0.585913	0.802996
H185	H	1.037872	-0.000140	0.303019
H186	H	1.537872	0.499860	0.803019
H187	H	1.072129	0.131288	0.177998
H188	H	1.572129	0.631288	0.677998
H189	H	1.004850	0.045223	0.178003
H190	H	1.504850	0.545223	0.678003
H191	H	1.040121	0.086121	0.775644
H192	H	1.540121	0.586121	1.275644
H193	H	0.177559	0.405409	0.000097
H194	H	0.677559	0.905409	0.500097
C195	C	1.101255	0.002078	0.661430
C196	C	1.601255	0.502078	1.161430
C197	C	1.061263	0.057028	0.604613
C198	C	1.561263	0.557028	1.104613
H199	H	1.135341	-0.044777	0.631773
H200	H	1.635341	0.455223	1.131773
H201	H	1.131409	0.049893	0.695510
H202	H	1.631409	0.549893	1.195510
H203	H	1.064134	-0.036162	0.695533
H204	H	1.564134	0.463838	1.195533
H205	H	1.098384	0.095274	0.570515
H206	H	1.598384	0.595274	1.070515
H207	H	1.031106	0.009206	0.570520
H208	H	1.531106	0.509206	1.070520
C209	C	0.830595	0.373973	0.481517
C210	C	1.330595	0.873973	0.981517
C211	C	0.824083	0.382893	0.395570
C212	C	1.324083	0.882893	0.895570
H213	H	0.796508	0.420833	0.511170
H214	H	1.296508	0.920833	1.011170
H215	H	0.816208	0.304502	0.495849
H216	H	1.316208	0.804502	0.995849
H217	H	0.883484	0.390555	0.495822
H218	H	1.383484	0.890555	0.995822
H219	H	0.771195	0.366303	0.381264
H220	H	1.271195	0.866303	0.881264
H221	H	0.838465	0.452380	0.381233
H222	H	1.338465	0.952380	0.881233
H223	H	1.051809	-0.108058	0.000107
H224	H	1.551809	0.391942	0.500107
C225	C	0.668631	-0.079506	0.000083
C226	C	1.168631	0.420494	0.500083
C227	C	0.720194	0.008908	0.000080
C228	C	1.220194	0.508908	0.500080
H229	H	0.698172	-0.140489	0.000076
H230	H	1.198172	0.359511	0.500076
H231	H	0.634295	-0.076134	0.048505
H232	H	1.134295	0.423866	0.548505
H233	H	0.638467	-0.081862	-0.048341
H234	H	1.138467	0.418138	0.451659
H235	H	0.750354	0.011268	0.048508
H236	H	1.250354	0.511268	0.548508
H237	H	0.754544	0.005536	-0.048347
H238	H	1.254544	0.505536	0.451653
H239	H	0.845226	0.353801	0.224548
H240	H	1.345226	0.853801	0.724548
C241	C	1.185995	-0.340712	0.000097
C242	C	1.685995	0.159288	0.500097
C243	C	1.129954	-0.264228	0.000096
C244	C	1.629954	0.235772	0.500096
H245	H	1.237394	-0.308146	0.000093
H246	H	1.737394	0.191854	0.500093
H247	H	1.177212	-0.380055	0.048517
H248	H	1.677212	0.119945	0.548517
H249	H	1.181393	-0.385795	-0.048329
H250	H	1.681393	0.114205	0.451671
H251	H	1.134552	-0.219149	0.048525
H252	H	1.634552	0.280851	0.548525
H253	H	1.138740	-0.224867	-0.048330
H254	H	1.638740	0.275133	0.451670
H255	H	1.090979	-0.475503	0.000087
H256	H	1.590979	0.024497	0.500087
