data_functionalizedCrystal
_audit_creation_method	'MofGen! by Chris Wilmer'
_symmetry_space_group_name_H-M	'P1'
_symmetry_Int_Tables_number	1
_symmetry_cell_setting	triclinic
loop_
_symmetry_equiv_pos_as_xyz
  x,y,z
_cell_length_a	23.196402
_cell_length_b	14.395555
_cell_length_c	23.196401
_cell_angle_alpha	90.015017
_cell_angle_beta	60.008520
_cell_angle_gamma	59.998157
loop_
_atom_site_label
_atom_site_type_symbol
_atom_site_fract_x
_atom_site_fract_y
_atom_site_fract_z
Zr1	Zr	0.630996	0.894864	-0.075612
O2	O	0.751271	0.746494	-0.167666
O3	O	0.510725	0.940350	-0.047394
O4	O	0.630996	0.940300	-0.167662
O5	O	0.630998	0.746581	0.047473
O6	O	0.630992	1.093174	-0.167657
O7	O	0.631000	0.746545	-0.047398
O8	O	0.415848	1.093264	0.047480
O9	O	0.846142	0.746491	-0.167664
O10	O	0.560189	1.073834	-0.035354
O11	O	0.560192	0.959774	0.035444
O12	O	0.701796	0.959714	-0.106156
O13	O	0.701798	0.845653	-0.035358
Zr14	Zr	0.630987	1.138739	0.075705
Zr15	Zr	0.630989	1.138681	-0.075604
Zr16	Zr	0.630994	0.894923	0.075697
Zr17	Zr	0.782304	0.894859	-0.075609
Zr18	Zr	0.479679	1.138744	0.075702
O19	O	0.751258	1.093253	0.047487
O20	O	0.751261	1.093170	-0.167654
O21	O	0.751268	0.746577	0.047476
O22	O	0.510712	1.287109	0.167759
O23	O	0.510715	1.287026	-0.047383
O24	O	0.510721	0.940433	0.167748
O25	O	0.630985	1.287022	-0.047380
O26	O	0.630987	1.093303	0.167755
O27	O	0.630991	0.940429	0.167750
O28	O	0.630983	1.287059	0.047491
O29	O	0.846136	0.940293	-0.167657
O30	O	0.415847	1.093310	0.167751
O31	O	0.415841	1.287112	0.167757
O32	O	0.415843	1.287066	0.047487
O33	O	0.846140	0.746538	-0.047393
O34	O	0.846134	0.940339	-0.047387
O35	O	0.560187	1.073889	0.106249
O36	O	0.560185	1.187950	0.035452
O37	O	0.701791	1.073830	-0.035351
O38	O	0.701793	0.959769	0.035447
C39	C	0.441729	1.016808	0.000043
C40	C	0.377494	1.016810	0.000041
C41	C	-0.085350	1.076343	-0.036897
C42	C	-0.024991	1.076340	-0.036903
C43	C	0.005192	1.016803	0.000053
C44	C	-0.024974	0.957240	0.037003
C45	C	-0.085326	0.957236	0.037003
C46	C	0.067218	1.025335	0.061958
C47	C	0.127565	1.025348	0.061961
C48	C	0.191340	1.016811	0.000053
C49	C	0.194753	1.008284	-0.061856
C50	C	0.134401	1.008279	-0.061857
C51	C	0.070634	1.016801	0.000057
C52	C	0.286951	1.076360	-0.036905
C53	C	0.347314	1.076349	-0.036914
C54	C	0.347325	0.957257	0.036999
C55	C	0.286968	0.957261	0.037001
C56	C	0.256782	1.016818	0.000050
C57	C	0.631000	0.711824	0.000037
C58	C	0.631003	0.608318	0.000033
C59	C	0.708213	0.485506	-0.038565
C60	C	0.669616	0.454661	-0.066540
C61	C	0.669596	0.454740	0.028003
C62	C	0.592406	0.578836	-0.027980
C63	C	0.592397	0.578912	0.066599
C64	C	0.553744	0.548140	0.038641
C65	C	0.820254	1.016795	0.000051
C66	C	0.884488	1.016793	0.000052
C67	C	0.630994	1.016729	-0.189218
C68	C	0.630995	1.016704	-0.253452
C69	C	0.630983	1.321779	0.000057
C70	C	0.630980	1.425285	0.000060
C71	C	0.704910	0.957140	-0.320583
C72	C	0.704911	0.957169	-0.380939
C73	C	0.630993	1.016746	-0.374159
C74	C	0.557069	1.076323	-0.307015
C75	C	0.557070	1.076302	-0.246662
C76	C	0.574364	1.008289	-0.441477
C77	C	0.574366	1.008302	-0.501831
C78	C	0.630987	1.016818	-0.560306
C79	C	0.687620	1.025299	-0.558428
C80	C	0.687621	1.025278	-0.498074
C81	C	0.630984	1.016776	-0.439597
C82	C	0.704908	0.957283	-0.692884
C83	C	0.704906	0.957320	-0.753239
C84	C	0.557062	1.076467	-0.679313
C85	C	0.557066	1.076437	-0.618961
C86	C	0.630991	1.016839	-0.625751
C87	C	0.630988	1.016875	0.189311
C88	C	0.630987	1.016899	0.253546
C89	C	0.441720	1.321785	0.000053
C90	C	0.377483	1.425294	0.000055
C91	C	0.441726	1.016881	0.189307
C92	C	0.377490	1.016908	0.253540
C93	C	0.441717	1.321858	0.189317
C94	C	0.377479	1.425392	0.253554
C95	C	0.820266	0.711745	-0.189224
C96	C	0.884504	0.608212	-0.253460
C97	C	0.820263	0.711818	0.000041
C98	C	0.884500	0.608309	0.000039
C99	C	0.820257	1.016722	-0.189214
C100	C	0.884492	1.016696	-0.253447
C101	C	0.347319	1.414335	-0.036910
C102	C	0.286970	1.511584	-0.036922
C103	C	0.256782	1.619789	0.000035
C104	C	0.286952	1.630745	0.037001
C105	C	0.347304	1.533498	0.037009
C106	C	0.347323	1.076487	0.320671
C107	C	0.286976	1.076508	0.381031
C108	C	0.256793	1.016956	0.374258
C109	C	0.286967	0.957369	0.307121
C110	C	0.347317	0.957342	0.246763
C111	C	0.347311	1.533561	0.246764
C112	C	0.286961	1.630851	0.307116
C113	C	0.256776	1.619969	0.374256
C114	C	0.286950	1.511788	0.381044
C115	C	0.347303	1.414501	0.320693
C116	C	0.914679	0.500042	-0.246671
C117	C	0.975048	0.402753	-0.307022
C118	C	1.005236	0.413634	-0.374163
C119	C	0.975058	0.521815	-0.380951
C120	C	0.914695	0.619102	-0.320600
C121	C	0.914670	0.619268	0.036997
C122	C	0.975036	0.522020	0.036993
C123	C	1.005226	0.413814	0.000033
C124	C	0.975053	0.402858	-0.036930
C125	C	0.914693	0.500105	-0.036929
C126	C	0.914656	1.076260	-0.246652
C127	C	0.975003	1.076257	-0.307000
C128	C	1.005191	1.016682	-0.374143
C129	C	0.975021	0.957116	-0.380936
C130	C	0.914671	0.957126	-0.320589
H131	H	0.246681	1.001329	-0.112268
C132	C	-0.118530	1.141825	-0.077564
N133	N	-0.143516	1.191135	-0.108202
C134	C	0.786227	0.891737	-0.700351
N135	N	0.847477	0.842369	-0.705978
H136	H	0.371858	1.326428	0.326231
H137	H	-0.109883	0.908741	0.067091
H138	H	0.890118	0.908617	-0.326131
H139	H	0.890103	0.491160	-0.192008
H140	H	0.207652	1.016987	0.423412
C141	C	1.008182	1.141781	-0.299511
N142	N	1.033172	1.191132	-0.293869
C143	C	0.881499	0.738087	-0.328080
N144	N	0.856497	0.827705	-0.333720
C145	C	1.008267	0.533766	-0.454812
N146	N	1.033276	0.542764	-0.510446
H147	H	0.137184	1.001333	-0.112266
H148	H	0.999593	0.530963	0.067095
C149	C	0.713710	0.382288	-0.142567
N150	N	0.746930	0.327762	-0.199830
C151	C	0.253787	1.499506	-0.077582
N152	N	0.228793	1.490406	-0.108205
C153	C	0.786226	0.891641	-0.454794
N154	N	0.847473	0.842284	-0.510420
H155	H	0.999643	0.314745	-0.067021
C156	C	0.190380	1.727000	0.440637
N157	N	0.140367	1.807620	0.490633
H158	H	0.765099	0.908820	-0.807902
C159	C	1.071631	0.306603	-0.440544
N160	N	1.121637	0.225983	-0.490540
H161	H	0.890094	0.707365	0.067099
C162	C	0.881502	0.488032	-0.077580
N163	N	0.856505	0.478929	-0.108199
C164	C	1.071580	1.016680	-0.440520
N165	N	1.121586	1.016680	-0.490514
C166	C	0.548359	0.650903	-0.060015
N167	N	0.515187	0.705183	-0.084145
H168	H	0.262415	1.125035	0.435691
H169	H	0.559793	0.632449	0.122870
H170	H	0.262375	1.124852	-0.066996
C171	C	1.071621	0.306850	0.000043
N172	N	1.121628	0.226289	0.000056
C173	C	1.008207	0.891635	-0.454800
N174	N	1.033197	0.842328	-0.510436
H175	H	0.371891	1.124983	0.326199
H176	H	0.890087	1.124773	-0.191987
H177	H	0.371879	1.542443	0.192101
H178	H	0.207638	1.698964	0.000024
C179	C	0.008189	1.141859	-0.077546
N180	N	0.033176	1.191212	-0.108156
H181	H	0.371876	1.124837	-0.067006
H182	H	0.262383	0.908882	0.301617
C183	C	0.380486	0.891809	0.172920
N184	N	0.405465	0.842449	0.117303
H185	H	0.262364	1.502945	0.435718
C186	C	0.253748	0.891817	0.077689
N187	N	0.228715	0.842541	0.108349
C188	C	-0.002927	1.034712	0.130064
N189	N	-0.055756	1.041768	0.181358
H190	H	0.124776	1.032302	0.112373
C191	C	0.008227	0.891752	0.077656
N192	N	0.033235	0.842423	0.108276
H193	H	0.773501	0.460047	-0.071256
C194	C	0.465474	0.582809	0.082740
N195	N	0.398991	0.608915	0.115951
H196	H	0.371897	1.326238	-0.067014
C197	C	0.253774	1.749838	0.299633
N198	N	0.228776	1.839457	0.293995
H199	H	0.999608	0.314677	-0.301482
H200	H	0.371903	0.908775	0.067085
C201	C	0.749909	1.034622	-0.496006
N202	N	0.796822	1.041667	-0.494447
C203	C	0.713697	0.382476	0.059948
N204	N	0.746919	0.328046	0.084005
C205	C	0.475751	1.142005	-0.671851
N206	N	0.414505	1.191372	-0.666232
C207	C	0.475753	1.141950	-0.545112
N208	N	0.414504	1.191298	-0.489487
C209	C	0.749907	1.034672	-0.622748
N210	N	0.796820	1.041731	-0.671196
H211	H	0.262364	1.718859	0.067090
H212	H	0.765106	0.908615	-0.326118
H213	H	0.528256	1.001345	-0.393868
C214	C	0.512072	0.998966	-0.503893
N215	N	0.465150	0.991935	-0.505443
C216	C	0.475754	1.141822	-0.172812
N217	N	0.414506	1.191170	-0.117187
C218	C	0.475759	1.141855	-0.299558
N219	N	0.414514	1.191217	-0.293940
H220	H	0.371856	1.542436	0.067114
