data_functionalizedCrystal
_audit_creation_method	'MofGen! by Chris Wilmer'
_symmetry_space_group_name_H-M	'P1'
_symmetry_Int_Tables_number	1
_symmetry_cell_setting	triclinic
loop_
_symmetry_equiv_pos_as_xyz
  x,y,z
_cell_length_a	27.732048
_cell_length_b	10.489716
_cell_length_c	8.965430
_cell_angle_alpha	89.996523
_cell_angle_beta	89.991808
_cell_angle_gamma	96.414105
loop_
_atom_site_label
_atom_site_type_symbol
_atom_site_fract_x
_atom_site_fract_y
_atom_site_fract_z
O1	O	-0.068131	1.691077	-0.123999
O2	O	-0.074544	1.319596	-0.124002
O3	O	-0.001013	1.516874	-0.124020
O4	O	-0.141662	1.493799	-0.123981
O5	O	-0.001018	1.516857	0.124059
O6	O	-0.074549	1.319579	0.124077
O7	O	-0.068136	1.691060	0.124080
Cu8	Cu	-0.071343	1.505318	0.146730
Cu9	Cu	-0.071337	1.505338	-0.146652
O10	O	-0.141666	1.493782	0.124098
C11	C	-0.074064	1.272076	0.000037
C12	C	-0.072623	1.130509	0.000034
C13	C	-0.117714	1.030853	0.000043
C14	C	-0.093889	0.954546	0.122359
C15	C	-0.093874	0.954569	-0.122227
C16	C	-0.048817	1.056066	0.122451
C17	C	-0.048808	1.056095	-0.122245
C18	C	-0.024950	0.979838	0.000101
C19	C	-0.159674	1.494275	0.000064
C20	C	-0.213338	1.495733	0.000079
C21	C	-0.551479	1.388337	0.000006
C22	C	-0.753172	1.393749	-0.000012
O23	O	-0.783811	1.295542	-0.000078
N24	N	-0.773031	1.510727	-0.000009
C25	C	-0.742462	1.626360	-0.000011
O26	O	-0.763980	1.725981	-0.000024
C27	C	-0.540769	1.620947	-0.000004
C28	C	-0.520914	1.503961	0.000008
C29	C	-0.531623	1.271361	0.000016
C30	C	-0.481203	1.270010	0.000029
C31	C	-0.450638	1.385634	0.000031
C32	C	-0.470494	1.502610	0.000021
C33	C	-0.510202	1.736579	-0.000017
C34	C	-0.459776	1.735215	-0.000019
C35	C	-0.439921	1.618230	-0.000007
C36	C	-0.389508	1.616882	0.000035
N37	N	-0.369650	1.499905	0.000032
C38	C	-0.400215	1.384280	0.000030
C39	C	-0.848354	1.629193	-0.000012
C40	C	-0.898777	1.630547	-0.000011
C41	C	-0.909484	1.397935	-0.000015
C42	C	-0.859060	1.396583	-0.000005
C43	C	-0.828496	1.512215	-0.000015
C44	C	-0.294328	1.381451	0.000058
C45	C	-0.243903	1.380109	0.000076
C46	C	-0.233200	1.612720	0.000072
C47	C	-0.283621	1.614062	0.000061
C48	C	-0.314184	1.498417	0.000049
O49	O	-0.358841	1.715036	0.000085
O50	O	-0.378687	1.284674	0.000010
C51	C	-0.601899	1.389689	-0.000007
C52	C	-0.621755	1.506665	-0.000017
C53	C	-0.591190	1.622289	-0.000015
C54	C	-0.672178	1.508018	-0.000016
C55	C	-0.702743	1.392394	-0.000019
C56	C	-0.682884	1.275416	-0.000022
C57	C	-0.632464	1.274065	-0.000009
C58	C	-0.611048	1.739267	-0.000012
C59	C	-0.661469	1.740609	-0.000023
C60	C	-0.692034	1.624985	-0.000025
C61	C	0.016995	1.516381	0.000011
C62	C	0.070659	1.514923	-0.000013
C63	C	-0.068615	1.738580	0.000038
C64	C	-0.070057	1.880147	0.000031
N65	N	-0.071346	1.505314	0.353079
N66	N	-0.071329	1.505353	-0.353001
C67	C	-0.105341	1.414052	0.450394
C68	C	-0.115117	1.529120	0.549812
C69	C	-0.061575	1.390294	0.549789
C70	C	-0.081144	1.620439	0.450309
C71	C	-0.027583	1.481538	0.450277
C72	C	-0.037341	1.596690	0.549650
H73	H	-0.029795	1.100212	0.225962
H74	H	-0.677630	1.835879	-0.000021
O75	O	-0.116553	0.901811	0.245884
C76	C	-0.118917	0.895514	0.514482
C77	C	-0.093210	0.955366	0.374728
H78	H	-0.100048	0.938770	0.618687
H79	H	-0.158436	0.915976	0.514466
H80	H	-0.117279	0.787405	0.513744
H81	H	-0.094810	1.063486	0.375374
H82	H	-0.053703	0.934803	0.374797
H83	H	-0.134115	1.336944	0.406812
H84	H	-0.156937	1.053798	0.000169
H85	H	-0.842898	1.301323	0.000011
O86	O	-0.224696	1.266351	0.000016
C87	C	-0.240647	1.035777	0.000099
C88	C	-0.262460	1.164510	0.000136
H89	H	-0.271169	0.953405	0.000228
H90	H	-0.217318	1.029245	-0.103741
H91	H	-0.217299	1.029386	0.103901
H92	H	-0.285830	1.170988	-0.103595
H93	H	-0.285761	1.170987	0.104045
H94	H	-0.299788	1.709321	0.000073
O95	O	-0.026115	1.109231	-0.245506
C96	C	-0.001748	1.303203	-0.382912
C97	C	-0.027446	1.243194	-0.243224
H98	H	-0.002824	1.411517	-0.381130
H99	H	0.037598	1.281275	-0.383999
H100	H	-0.021025	1.261218	-0.487087
H101	H	-0.008209	1.285145	-0.138975
H102	H	-0.066793	1.265113	-0.242269
H103	H	0.014301	0.957133	0.000161
O104	O	-0.917981	1.744299	-0.000073
C105	C	-0.902026	1.974872	0.000009
C106	C	-0.880215	1.846135	0.000056
H107	H	-0.871502	2.057241	0.000144
H108	H	-0.925341	1.981421	-0.103838
H109	H	-0.925386	1.981254	0.103803
H110	H	-0.856832	1.839667	-0.103668
H111	H	-0.856928	1.839642	0.103971
H112	H	-0.089446	1.717746	0.406795
H113	H	0.009407	1.461366	0.406523
H114	H	-0.526359	1.831841	-0.000028
H115	H	-0.707779	1.181271	-0.000014
H116	H	-0.152119	1.549256	0.593531
H117	H	-0.112916	0.910256	-0.225621
O118	O	-0.003086	1.689040	0.601261
C119	C	0.025324	1.914589	0.608780
C120	C	-0.013504	1.810134	0.550255
H121	H	0.016921	2.012514	0.567539
H122	H	0.025297	1.913490	0.735933
H123	H	0.062524	1.895070	0.566107
H124	H	-0.050723	1.829581	0.592817
H125	H	-0.013433	1.811258	0.423103
O126	O	-0.324033	1.269149	-0.000211
C127	C	-0.387182	1.135686	-0.128682
C128	C	-0.353563	1.262898	-0.128594
H129	H	-0.411073	1.130603	-0.232453
H130	H	-0.364347	1.051808	-0.128765
H131	H	-0.411041	1.130511	-0.024816
H132	H	-0.329698	1.268198	-0.232442
H133	H	-0.376427	1.346716	-0.128433
H134	H	-0.465042	1.174748	0.000025
H135	H	-0.208305	1.706858	0.000081
H136	H	-0.934378	1.303790	-0.000010
H137	H	-0.556504	1.177201	0.000009
H138	H	-0.823472	1.723361	-0.000018
O139	O	-0.430037	1.847462	0.000173
C140	C	-0.366926	1.980978	0.128743
C141	C	-0.400567	1.853803	0.128689
H142	H	-0.343098	1.986159	0.232653
H143	H	-0.343011	1.986185	0.024997
H144	H	-0.389793	2.064791	0.128661
H145	H	-0.377738	1.769918	0.128824
H146	H	-0.424484	1.848708	0.232426
H147	H	-0.053317	1.293008	0.593490
O148	O	-0.613204	1.160391	-0.000273
C149	C	-0.606961	0.961138	-0.128757
C150	C	-0.628791	1.089847	-0.128657
H151	H	-0.619563	0.904055	-0.232528
H152	H	-0.565669	0.979933	-0.128849
H153	H	-0.619517	0.904099	-0.024892
H154	H	-0.616272	1.146950	-0.232504
H155	H	-0.670080	1.070961	-0.128487
H156	H	-0.586167	1.833424	-0.000012
