data_functionalizedCrystal
_audit_creation_method	'MofGen! by Chris Wilmer'
_symmetry_space_group_name_H-M	'P1'
_symmetry_Int_Tables_number	1
_symmetry_cell_setting	triclinic
loop_
_symmetry_equiv_pos_as_xyz
  x,y,z
_cell_length_a	19.188930
_cell_length_b	19.188924
_cell_length_c	10.268362
_cell_angle_alpha	89.992651
_cell_angle_beta	89.981535
_cell_angle_gamma	83.143372
loop_
_atom_site_label
_atom_site_type_symbol
_atom_site_fract_x
_atom_site_fract_y
_atom_site_fract_z
O1	O	0.926143	0.087168	-0.108725
O2	O	0.722831	0.098903	-0.108636
O3	O	0.830357	-0.008620	-0.108668
O4	O	0.818617	0.194692	-0.108693
O5	O	0.830347	-0.008625	0.107933
O6	O	0.722822	0.098898	0.107964
O7	O	0.926133	0.087164	0.107876
Cu8	Cu	0.824477	0.093031	0.127698
Cu9	Cu	0.824488	0.093036	-0.128458
O10	O	0.818608	0.194687	0.107907
C11	C	0.696815	0.098521	-0.000324
C12	C	0.619311	0.097380	-0.000290
C13	C	0.574385	0.160471	-0.000318
C14	C	0.501562	0.159399	-0.000333
C15	C	0.473667	0.095233	-0.000345
C16	C	0.518602	0.032134	-0.000309
C17	C	0.591424	0.033207	-0.000282
N18	N	0.365691	0.046187	-0.074110
N19	N	0.296512	0.045172	-0.074138
C20	C	0.254258	0.091995	-0.000424
N21	N	0.283795	0.139882	0.073304
N22	N	0.352979	0.140900	0.073327
C23	C	0.394704	0.094062	-0.000373
C24	C	0.130368	0.153928	-0.000466
C25	C	0.057543	0.152854	-0.000472
C26	C	0.074585	0.025586	-0.000461
C27	C	0.147409	0.026663	-0.000442
C28	C	0.175295	0.090835	-0.000450
C29	C	0.829973	-0.034634	-0.000366
C30	C	0.828834	-0.112138	-0.000362
C31	C	0.828307	-0.148535	-0.118431
C32	C	0.827227	-0.221358	-0.118441
C33	C	0.826688	-0.257783	-0.000374
C34	C	0.827211	-0.221377	0.117710
C35	C	0.828283	-0.148555	0.117717
N36	N	0.864732	-0.377448	0.087483
N37	N	0.863714	-0.446626	0.087469
C38	C	0.823454	-0.477192	-0.000385
N39	N	0.784258	-0.435967	-0.088246
N40	N	0.785279	-0.366783	-0.088235
C41	C	0.825524	-0.336746	-0.000368
C42	C	0.821756	-0.592551	-0.118473
C43	C	0.820671	-0.665375	-0.118477
C44	C	0.820661	-0.665394	0.117677
C45	C	0.821739	-0.592571	0.117678
C46	C	0.822289	-0.556154	-0.000400
C47	C	0.952149	0.087546	-0.000439
C48	C	1.029654	0.088687	-0.000482
C49	C	0.818992	0.220700	-0.000397
C50	C	0.820131	0.298205	-0.000410
N51	N	0.824474	0.093027	0.307863
N52	N	0.824496	0.093035	-0.308624
C53	C	0.824484	0.093035	0.573534
C54	C	0.824476	0.093032	0.425696
H55	H	0.020965	0.204232	-0.000487
O56	O	0.820199	-0.700630	-0.233293
C57	C	0.820312	-0.692921	-0.467520
C58	C	0.820858	-0.652909	-0.337586
H59	H	0.820829	-0.654354	-0.551875
H60	H	0.868674	-0.733536	-0.473515
H61	H	0.770971	-0.720496	-0.473357
H62	H	0.870166	-0.625292	-0.331662
H63	H	0.772463	-0.612334	-0.331646
O64	O	0.047465	-0.036729	-0.000705
C65	C	-0.024865	-0.111781	-0.112903
C66	C	0.005818	-0.041190	-0.112810
H67	H	-0.058555	-0.115405	-0.203516
H68	H	0.019731	-0.156719	-0.112970
H69	H	-0.058527	-0.115460	-0.022226
H70	H	0.039471	-0.037443	-0.203471
H71	H	-0.038812	0.003714	-0.112675
H72	H	0.826794	-0.250997	-0.214590
O73	O	0.191123	-0.034580	-0.000607
C74	C	0.283229	-0.107242	-0.112834
C75	C	0.233774	-0.037849	-0.112798
H76	H	0.317714	-0.109915	-0.203544
H77	H	0.317773	-0.109936	-0.022237
H78	H	0.250769	-0.153277	-0.112783
H79	H	0.266178	0.008224	-0.112894
H80	H	0.199227	-0.035217	-0.203386
H81	H	0.464976	0.210777	-0.000352
O82	O	0.828802	-0.113264	-0.233245
C83	C	0.828742	-0.120940	-0.467473
C84	C	0.828167	-0.160970	-0.337543
H85	H	0.828244	-0.159495	-0.551832
H86	H	0.780381	-0.080325	-0.473446
H87	H	0.878084	-0.093364	-0.473325
H88	H	0.778858	-0.188589	-0.331604
H89	H	0.876562	-0.201546	-0.331625
O90	O	0.826591	-0.256820	0.232319
C91	C	0.764875	-0.330917	0.369421
C92	C	0.765502	-0.290827	0.239562
H93	H	0.715483	-0.358410	0.375331
H94	H	0.813190	-0.371594	0.375328
H95	H	0.765470	-0.292381	0.453789
H96	H	0.764884	-0.329309	0.155120
H97	H	0.717192	-0.250140	0.233769
H98	H	0.822200	-0.562899	-0.214619
O99	O	0.822291	-0.557325	0.232489
C100	C	0.822134	-0.565026	0.466716
C101	C	0.821524	-0.605031	0.336782
H102	H	0.821499	-0.603577	0.551071
H103	H	0.871500	-0.537497	0.472685
H104	H	0.773798	-0.524373	0.472578
H105	H	0.869826	-0.645717	0.330833
H106	H	0.772127	-0.632512	0.330868
H107	H	0.597086	0.212725	-0.000328
H108	H	0.828709	-0.118921	0.213866
H109	H	0.495885	-0.020111	-0.000336
H110	H	0.628003	-0.018171	-0.000259
H111	H	0.153075	0.206181	-0.000454
H112	H	0.820217	-0.695050	0.213809
