data_functionalizedCrystal
_audit_creation_method	'MofGen! by Chris Wilmer'
_symmetry_space_group_name_H-M	'P1'
_symmetry_Int_Tables_number	1
_symmetry_cell_setting	triclinic
loop_
_symmetry_equiv_pos_as_xyz
  x,y,z
_cell_length_a	15.995350
_cell_length_b	23.532407
_cell_length_c	14.472310
_cell_angle_alpha	89.994233
_cell_angle_beta	89.990621
_cell_angle_gamma	83.170526
loop_
_atom_site_label
_atom_site_type_symbol
_atom_site_fract_x
_atom_site_fract_y
_atom_site_fract_z
O1	O	1.110386	0.073404	-0.076772
O2	O	0.866535	0.082469	-0.076793
O3	O	0.995814	-0.004967	-0.076765
O4	O	0.981107	0.160840	-0.076800
O5	O	0.995781	-0.004962	0.076917
O6	O	0.866502	0.082474	0.076889
O7	O	1.110353	0.073409	0.076910
Cu8	Cu	0.988424	0.077942	0.090932
Cu9	Cu	0.988464	0.077936	-0.090815
O10	O	0.981074	0.160845	0.076882
C11	C	0.835327	0.082096	0.000046
C12	C	0.742386	0.080973	0.000039
C13	C	0.404672	0.076938	0.000059
C14	C	0.452624	0.014668	0.000415
C15	C	0.549305	0.015792	0.000062
C16	C	0.572216	0.078939	0.000050
C17	C	0.530892	0.109650	-0.087713
C18	C	0.434270	0.108086	-0.087780
C19	C	0.433882	0.109378	0.086985
C20	C	0.530828	0.109364	0.088139
C21	C	0.666904	0.080074	0.000041
C22	C	0.309984	0.075805	0.000061
C23	C	0.995423	-0.026182	0.000078
C24	C	0.994297	-0.089404	0.000085
C25	C	1.063739	-0.488239	0.000041
C26	C	1.062693	-0.547644	0.000033
O27	O	1.127067	-0.584141	0.000005
N28	N	0.985837	-0.570566	0.000028
C29	C	0.910022	-0.534080	0.000020
O30	O	0.844554	-0.559031	0.000013
C31	C	0.911069	-0.474677	0.000020
C32	C	0.987930	-0.451758	0.000035
C33	C	1.140594	-0.465320	0.000055
C34	C	1.141640	-0.405920	0.000063
C35	C	1.065830	-0.369439	0.000058
C36	C	0.988975	-0.392358	0.000044
C37	C	0.835255	-0.438192	0.000006
C38	C	0.836308	-0.378785	0.000005
C39	C	0.913169	-0.355867	0.000020
C40	C	0.914212	-0.296477	0.000048
N41	N	0.991068	-0.273555	0.000053
C42	C	1.066877	-0.310036	0.000059
C43	C	0.907829	-0.658831	0.000017
C44	C	0.906781	-0.718233	0.000023
C45	C	1.059453	-0.731793	0.000035
C46	C	1.060500	-0.672389	0.000036
C47	C	0.984685	-0.635909	0.000023
C48	C	1.069067	-0.185291	0.000078
C49	C	1.070106	-0.125885	0.000091
C50	C	0.917435	-0.112330	0.000074
C51	C	0.916396	-0.171731	0.000066
C52	C	0.992219	-0.208210	0.000065
O53	O	0.849872	-0.259945	0.000073
O54	O	1.132335	-0.285076	0.000053
C55	C	1.141561	0.073781	0.000069
C56	C	1.234502	0.074905	0.000070
C57	C	0.981465	0.182060	0.000037
C58	C	0.982591	0.245281	0.000024
N59	N	0.988403	0.077946	0.218763
N60	N	0.988492	0.077927	-0.218646
C61	C	0.988463	0.077933	0.592854
C62	C	0.919059	0.124562	0.553673
C63	C	0.919217	0.124732	0.446585
C64	C	0.988432	0.077939	0.407263
C65	C	1.075689	0.090918	0.446104
C66	C	1.075298	0.091250	0.553226
C67	C	0.971390	0.018188	0.553394
C68	C	0.969383	0.018587	0.446267
C69	C	0.988421	0.077942	0.302375
C70	C	0.988480	0.077932	0.697742
H71	H	0.559458	0.088316	-0.153019
H72	H	0.854341	0.116999	0.420326
C73	C	0.409806	0.077819	-0.176392
N74	N	0.391384	0.055018	-0.243134
H75	H	0.401642	0.153804	-0.091771
H76	H	1.091183	0.133993	0.419259
C77	C	1.033304	-0.030486	0.410131
N78	N	1.081461	-0.067446	0.382922
H79	H	1.090418	0.134821	0.578193
C80	C	0.567932	0.079060	0.175853
N81	N	0.595878	0.056230	0.241918
H82	H	1.123087	-0.653734	0.000047
H83	H	0.846088	-0.629131	0.000015
H84	H	0.545809	0.155413	0.093430
C85	C	0.750700	-0.463388	-0.000017
N86	N	0.687008	-0.482365	-0.000038
H87	H	1.128531	0.058627	0.579142
H88	H	1.132698	-0.107228	0.000105
C89	C	0.752904	-0.338660	-0.000006
N90	N	0.690083	-0.308438	-0.000010
H91	H	1.121181	-0.761507	0.000036
C92	C	0.831129	0.114298	0.588528
N93	N	0.764899	0.106569	0.614793
C94	C	0.390455	0.171401	0.087778
N95	N	0.357741	0.218115	0.088369
C96	C	0.933880	0.184627	0.411939
N97	N	0.944930	0.229742	0.385845
H98	H	1.128548	0.057860	0.420631
H99	H	0.433250	-0.010111	-0.062166
C100	C	0.406358	0.081875	0.176854
N101	N	0.385629	0.061153	0.244538
H102	H	0.855713	-0.082617	0.000073
C103	C	0.933509	0.184121	0.590014
N104	N	0.944396	0.228981	0.617387
C105	C	0.887316	0.001340	0.589924
N106	N	0.823986	-0.011343	0.617438
C107	C	1.039769	-0.028690	0.587630
N108	N	1.091273	-0.063994	0.613423
C109	C	0.587967	-0.016826	0.085050
N110	N	0.617084	-0.041399	0.149063
C111	C	0.427854	-0.018957	0.085441
N112	N	0.409190	-0.044284	0.149484
C113	C	0.882670	0.005281	0.411979
N114	N	0.817356	-0.004739	0.386149
C115	C	0.587234	-0.017045	-0.085067
N116	N	0.615802	-0.041778	-0.149192
C117	C	0.549458	0.172325	-0.092140
N118	N	0.563444	0.219531	-0.095474
H119	H	0.844194	-0.736887	0.000027
C120	C	1.226193	-0.380718	0.000070
N121	N	1.289884	-0.361740	0.000071
C122	C	1.223998	-0.505442	0.000070
N123	N	1.286823	-0.535657	0.000092
C124	C	1.152477	-0.225410	0.000085
N125	N	1.215301	-0.255627	0.000099
H126	H	0.853809	-0.190392	0.000079
