data_functionalizedCrystal
_audit_creation_method	'MofGen! by Chris Wilmer'
_symmetry_space_group_name_H-M	'P1'
_symmetry_Int_Tables_number	1
_symmetry_cell_setting	triclinic
loop_
_symmetry_equiv_pos_as_xyz
  x,y,z
_cell_length_a	14.519709
_cell_length_b	9.065218
_cell_length_c	7.540329
_cell_angle_alpha	89.996257
_cell_angle_beta	90.005156
_cell_angle_gamma	84.348015
loop_
_atom_site_label
_atom_site_type_symbol
_atom_site_fract_x
_atom_site_fract_y
_atom_site_fract_z
O1	O	-1.225278	-0.193397	0.147244
O2	O	-0.725278	0.306603	0.647244
O3	O	-0.956968	-0.216172	0.147297
O4	O	-0.456968	0.283828	0.647297
O5	O	-1.096669	0.009962	0.147266
O6	O	-0.596669	0.509962	0.647266
O7	O	-1.085577	-0.419531	0.147275
O8	O	-0.585577	0.080469	0.647275
O9	O	-1.096668	0.009974	-0.147699
O10	O	-0.596668	0.509974	0.352301
O11	O	-0.956967	-0.216159	-0.147668
O12	O	-0.456967	0.283841	0.352332
O13	O	-1.225277	-0.193384	-0.147721
O14	O	-0.725277	0.306616	0.352279
Cu15	Cu	-1.091122	-0.204771	-0.174627
Cu16	Cu	-0.591122	0.295229	0.325373
Cu17	Cu	-1.091123	-0.204785	0.174203
Cu18	Cu	-0.591123	0.295215	0.674203
O19	O	-1.085576	-0.419518	-0.147690
O20	O	-0.585576	0.080482	0.352310
C21	C	-0.922600	-0.215104	-0.000178
C22	C	-0.422600	0.284896	0.499822
C23	C	-0.820195	-0.211923	-0.000158
C24	C	-0.320195	0.288077	0.499842
C25	C	-1.095602	0.064935	-0.000214
C26	C	-0.595602	0.564935	0.499786
C27	C	-1.092415	0.228718	-0.000204
C28	C	-0.592415	0.728718	0.499796
C29	C	-1.259645	-0.194452	-0.000242
C30	C	-0.759645	0.305548	0.499758
C31	C	-1.362049	-0.197633	-0.000251
C32	C	-0.862049	0.302367	0.499749
C33	C	-0.445214	-0.200214	-0.000239
C34	C	0.054786	0.299786	0.499761
C35	C	-0.549545	-0.203466	-0.000216
C36	C	-0.049545	0.296534	0.499784
C37	C	-0.632701	-0.206068	-0.000197
C38	C	-0.132701	0.293932	0.499803
C39	C	-0.737039	-0.209321	-0.000177
C40	C	-0.237039	0.290679	0.499823
C41	C	-1.086642	-0.474491	-0.000206
C42	C	-0.586642	0.025509	0.499794
C43	C	-1.089830	-0.638274	-0.000204
C44	C	-0.589830	-0.138274	0.499796
N45	N	-1.091124	-0.204785	0.419552
N46	N	-0.591124	0.295215	0.919552
N47	N	-1.091127	-0.204760	-0.419976
N48	N	-0.591127	0.295240	0.080024
