data_functionalizedCrystal
_audit_creation_method	'MofGen! by Chris Wilmer'
_symmetry_space_group_name_H-M	'P1'
_symmetry_Int_Tables_number	1
_symmetry_cell_setting	triclinic
loop_
_symmetry_equiv_pos_as_xyz
  x,y,z
_cell_length_a	10.686220
_cell_length_b	25.639239
_cell_length_c	10.685880
_cell_angle_alpha	94.335559
_cell_angle_beta	89.641569
_cell_angle_gamma	94.420676
loop_
_atom_site_label
_atom_site_type_symbol
_atom_site_fract_x
_atom_site_fract_y
_atom_site_fract_z
Zn1	Zn	1.972091	-0.163214	-0.562345
Zn2	Zn	1.955791	-0.244518	-0.352579
Zn3	Zn	1.746219	-0.164279	-0.368668
Zn4	Zn	1.762195	-0.257808	-0.578349
O5	O	1.859074	-0.207455	-0.465485
O6	O	2.145477	-0.167991	-0.521089
O7	O	1.914483	-0.228759	-0.179173
O8	O	1.776317	-0.090970	-0.394395
O9	O	2.133502	-0.227725	-0.366975
O10	O	1.942264	-0.090187	-0.536689
O11	O	1.760512	-0.169807	-0.190993
O12	O	1.572789	-0.182694	-0.409913
O13	O	1.803545	-0.250376	-0.751766
O14	O	1.584527	-0.251409	-0.563965
O15	O	1.957755	-0.180878	-0.740009
O16	O	1.929975	-0.319450	-0.382493
O17	O	1.787740	-0.329214	-0.548365
C18	C	1.533140	-0.218610	-0.490422
C19	C	1.393707	-0.223395	-0.501120
C20	C	1.858858	-0.343303	-0.465444
C21	C	1.858884	-0.401417	-0.465460
C22	C	1.933355	-0.756675	-0.379237
C23	C	1.933405	-0.811278	-0.379250
O24	O	1.996499	-0.835180	-0.305893
N25	N	1.859301	-0.843689	-0.465552
C26	C	1.785151	-0.821494	-0.551855
O27	O	1.722125	-0.854076	-0.625263
C28	C	1.785109	-0.766892	-0.551846
C29	C	1.859209	-0.734484	-0.465530
C30	C	2.007449	-0.724267	-0.292928
C31	C	2.007397	-0.669667	-0.292914
C32	C	1.933251	-0.647476	-0.379208
C33	C	1.859157	-0.679884	-0.465516
C34	C	1.710968	-0.744698	-0.638154
C35	C	1.710932	-0.690092	-0.638139
C36	C	1.785032	-0.657683	-0.551823
C37	C	1.784958	-0.603094	-0.551796
N38	N	1.859062	-0.570683	-0.465494
C39	C	1.933209	-0.592874	-0.379200
C40	C	1.785247	-0.936162	-0.551867
C41	C	1.785282	-0.990763	-0.551870
C42	C	1.933538	-0.980543	-0.379266
C43	C	1.933495	-0.925941	-0.379258
C44	C	1.859352	-0.903751	-0.465565
C45	C	1.933093	-0.478212	-0.379176
C46	C	1.933031	-0.423608	-0.379166
C47	C	1.784781	-0.433833	-0.551773
C48	C	1.784838	-0.488432	-0.551780
C49	C	1.859004	-0.510619	-0.465476
O50	O	1.721900	-0.579155	-0.625118
O51	O	1.996237	-0.560286	-0.305814
C52	C	2.186280	-0.196257	-0.440452
C53	C	2.325716	-0.191485	-0.429784
C54	C	1.884250	-0.216991	-0.792676
C55	C	1.894979	-0.221054	-0.932105
C56	C	1.859326	-0.071076	-0.465552
C57	C	1.859434	-0.012959	-0.465580
C58	C	1.834067	-0.197916	-0.139562
C59	C	1.823582	-0.193697	-0.000116
H60	H	1.374176	-0.160505	-0.360525
C61	C	1.638693	-0.951758	-0.722469
C62	C	1.703724	-0.911774	-0.646730
H63	H	1.588361	-0.936702	-0.781027
H64	H	1.697027	-0.972551	-0.766317
H65	H	1.586571	-0.973131	-0.671424
H66	H	1.755853	-0.890403	-0.697774
H67	H	1.645383	-0.890972	-0.602878
H68	H	1.754238	-0.167169	-0.951676
C69	C	2.074950	-0.226790	-1.066666
C70	C	1.988604	-0.256870	-0.997486
H71	H	2.132754	-0.248901	-1.107021
H72	H	2.031597	-0.210180	-1.128013
H73	H	2.119074	-0.200894	-1.011874
H74	H	1.944473	-0.282764	-1.052280
H75	H	2.031962	-0.273489	-0.936132
C76	C	2.052355	-0.644587	-0.075859
C77	C	2.088869	-0.634051	-0.198043
H78	H	2.102666	-0.622603	-0.017291
H79	H	1.966674	-0.638016	-0.063872
H80	H	2.062982	-0.680286	-0.063544
H81	H	2.078233	-0.598352	-0.210361
H82	H	2.174571	-0.640617	-0.210035
C83	C	1.369478	-0.256565	-0.716503
C84	C	1.328292	-0.265223	-0.594624
H85	H	1.329097	-0.282389	-0.774225
H86	H	1.349526	-0.222716	-0.736621
H87	H	1.457742	-0.258727	-0.721323
H88	H	1.240028	-0.263058	-0.589802
H89	H	1.348235	-0.299081	-0.574501
C90	C	1.977969	-0.398523	-0.162101
C91	C	2.014491	-0.387986	-0.284283
H92	H	2.028265	-0.376535	-0.103529
H93	H	1.892283	-0.391960	-0.150124
H94	H	1.988611	-0.434221	-0.149782
H95	H	2.003840	-0.352289	-0.296605
H96	H	2.100198	-0.394545	-0.296264
C97	C	2.100630	-0.533235	-0.348983
C98	C	2.014637	-0.502588	-0.284316
H99	H	2.150977	-0.548279	-0.290419
H100	H	2.056515	-0.560358	-0.400355
H101	H	2.152732	-0.511849	-0.400017
H102	H	1.962529	-0.523975	-0.233289
H103	H	2.058755	-0.475462	-0.232923
C104	C	1.576990	-0.426146	-0.628990
C105	C	1.703291	-0.409435	-0.646637
H106	H	1.526691	-0.411081	-0.687559
H107	H	1.566414	-0.463299	-0.641355
H108	H	1.552205	-0.415384	-0.546091
H109	H	1.728079	-0.420200	-0.729534
H110	H	1.713873	-0.372275	-0.634282
H111	H	2.067835	-0.742328	-0.222657
C112	C	2.080037	-0.921336	-0.208649
C113	C	2.014955	-0.890320	-0.284385
H114	H	2.130335	-0.899346	-0.150083
H115	H	2.021735	-0.943132	-0.164810
H116	H	2.132197	-0.942560	-0.259695
H117	H	1.962788	-0.869099	-0.233340
H118	H	2.073265	-0.868516	-0.328227
C119	C	1.999601	-1.059712	-0.302805
C120	C	2.015163	-1.004942	-0.284511
H121	H	2.050029	-1.074774	-0.244343
H122	H	1.913955	-1.071062	-0.290720
H123	H	2.024286	-1.070442	-0.385757
H124	H	1.990469	-0.994211	-0.201562
H125	H	2.100828	-0.993588	-0.296586
H126	H	1.724504	-0.514820	-0.622069
H127	H	1.724930	-1.017146	-0.622146
H128	H	1.650557	-0.672028	-0.708424
C129	C	1.564455	-0.749292	-0.808783
C130	C	1.629523	-0.780312	-0.733045
H131	H	1.514179	-0.771279	-0.867374
H132	H	1.512286	-0.728076	-0.757751
H133	H	1.622775	-0.727489	-0.852605
H134	H	1.571201	-0.802112	-0.689216
H135	H	1.681695	-0.801538	-0.784084
