data_functionalizedCrystal
_audit_creation_method	'MofGen! by Chris Wilmer'
_symmetry_space_group_name_H-M	'P1'
_symmetry_Int_Tables_number	1
_symmetry_cell_setting	triclinic
loop_
_symmetry_equiv_pos_as_xyz
  x,y,z
_cell_length_a	10.654562
_cell_length_b	10.654551
_cell_length_c	9.730223
_cell_angle_alpha	90.001469
_cell_angle_beta	89.996961
_cell_angle_gamma	84.487733
loop_
_atom_site_label
_atom_site_type_symbol
_atom_site_fract_x
_atom_site_fract_y
_atom_site_fract_z
O1	O	1.667825	0.176469	-0.114371
O2	O	1.302349	0.193259	-0.114353
O3	O	1.493489	0.002125	-0.114363
O4	O	1.476685	0.367603	-0.114361
O5	O	1.493487	0.002130	0.114217
O6	O	1.302347	0.193263	0.114227
O7	O	1.667823	0.176474	0.114209
Zn8	Zn	1.485085	0.184869	0.150510
Zn9	Zn	1.485088	0.184863	-0.150654
O10	O	1.476683	0.367607	0.114219
C11	C	1.255550	0.192025	-0.000061
C12	C	1.116108	0.188327	-0.000054
C13	C	1.050576	0.186604	0.124534
C14	C	0.919554	0.183139	0.124511
C15	C	0.919606	0.183125	-0.124700
C16	C	1.050627	0.186581	-0.124675
C17	C	1.116057	0.188350	0.249155
C18	C	1.050524	0.186629	0.373753
C19	C	0.919502	0.183165	0.373730
C20	C	0.854012	0.181421	0.249109
C21	C	1.492254	-0.044670	-0.000076
C22	C	1.488562	-0.184114	-0.000085
C23	C	1.486831	-0.249629	-0.124682
C24	C	1.483351	-0.380649	-0.124675
C25	C	1.483338	-0.380629	0.124535
C26	C	1.486809	-0.249610	0.124527
C27	C	1.488584	-0.184132	-0.249294
C28	C	1.486854	-0.249647	-0.373901
C29	C	1.483374	-0.380668	-0.373894
C30	C	1.481623	-0.446173	-0.249281
C31	C	1.714622	0.177708	-0.000086
C32	C	1.854064	0.181406	-0.000102
C33	C	1.477918	0.414403	-0.000071
C34	C	1.481610	0.553846	-0.000071
N35	N	1.485092	0.184873	0.356046
N36	N	1.485090	0.184850	-0.356190
C37	C	1.569751	0.100268	0.427968
C38	C	1.569747	0.100253	0.571851
C39	C	1.400422	0.269459	0.571878
C40	C	1.400420	0.269467	0.427998
C41	C	1.654422	0.015674	0.356017
C42	C	1.739089	-0.068937	0.427938
C43	C	1.739086	-0.068952	0.571821
C44	C	1.654415	0.015644	0.643783
H45	H	0.866273	0.181708	-0.226160
N46	N	1.654417	0.015697	0.200831
H47	H	1.739898	0.034778	0.166172
H48	H	1.635363	-0.069819	0.166268
H49	H	1.488267	-0.196303	-0.475356
N50	N	1.654420	0.015635	0.798971
H51	H	1.587945	0.082068	0.833640
H52	H	1.635455	-0.069915	0.833515
N53	N	1.830379	-0.160188	0.350313
H54	H	1.886401	-0.111676	0.290616
H55	H	1.883923	-0.213781	0.417787
N56	N	1.830404	-0.160201	0.649393
H57	H	1.817559	-0.147377	0.751459
H58	H	1.815135	-0.249435	0.624232
N59	N	1.309105	0.360696	0.649486
H60	H	1.321954	0.347853	0.751547
H61	H	1.324380	0.449931	0.624344
H62	H	0.866150	0.181753	0.475184
N63	N	1.488678	-0.178927	0.258903
H64	H	1.410357	-0.192220	0.313383
H65	H	1.565840	-0.211249	0.313273
N66	N	1.481577	-0.451343	-0.508281
H67	H	1.483242	-0.389969	-0.587218
H68	H	1.557882	-0.515177	-0.513641
H69	H	1.481913	-0.433974	0.225989
H70	H	1.491421	-0.077449	-0.249313
N71	N	1.309108	0.360713	0.350413
H72	H	1.255476	0.414307	0.417823
H73	H	1.357665	0.416688	0.290715
N74	N	1.477852	-0.587486	-0.249269
H75	H	1.477014	-0.619053	-0.347110
H76	H	1.554733	-0.628451	-0.200286
H77	H	1.103856	0.188040	0.475215
H78	H	0.747325	0.178596	0.249100
N79	N	1.257370	0.192095	0.249178
H80	H	1.288911	0.192940	0.347026
H81	H	1.298339	0.115203	0.200206
H82	H	1.103984	0.187989	-0.226126
