data_functionalizedCrystal
_audit_creation_method	'MofGen! by Chris Wilmer'
_symmetry_space_group_name_H-M	'P1'
_symmetry_Int_Tables_number	1
_symmetry_cell_setting	triclinic
loop_
_symmetry_equiv_pos_as_xyz
  x,y,z
_cell_length_a	12.759399
_cell_length_b	12.759401
_cell_length_c	12.759393
_cell_angle_alpha	90.019559
_cell_angle_beta	89.968715
_cell_angle_gamma	89.986299
loop_
_atom_site_label
_atom_site_type_symbol
_atom_site_fract_x
_atom_site_fract_y
_atom_site_fract_z
Zn1	Zn	-0.418256	-1.606249	-0.594013
Zn2	Zn	-0.593975	-1.606141	-0.418334
Zn3	Zn	-0.418305	-1.430551	-0.418349
Zn4	Zn	-0.593888	-1.430537	-0.593972
O5	O	-0.506106	-1.518370	-0.506167
O6	O	-0.441582	-1.753256	-0.570720
O7	O	-0.570729	-1.582809	-0.271315
O8	O	-0.271278	-1.453909	-0.441675
O9	O	-0.570682	-1.753176	-0.441649
O10	O	-0.271242	-1.582994	-0.570734
O11	O	-0.441665	-1.453804	-0.271326
O12	O	-0.441581	-1.283528	-0.441635
O13	O	-0.570533	-1.453885	-0.740999
O14	O	-0.570581	-1.283518	-0.570665
O15	O	-0.441497	-1.582980	-0.741029
O16	O	-0.740985	-1.582796	-0.441609
O17	O	-0.740921	-1.453780	-0.570650
C18	C	-0.506077	-1.245402	-0.506148
C19	C	-0.506090	-1.128626	-0.506165
C20	C	-0.779073	-1.518303	-0.506147
C21	C	-0.895850	-1.518371	-0.506173
C22	C	-0.573366	-1.073786	-0.573238
C23	C	-0.573375	-0.964062	-0.573247
C24	C	-0.438830	-0.964027	-0.439101
C25	C	-0.438816	-1.073749	-0.439097
C26	C	-0.651048	-1.073805	-0.650683
C27	C	-0.651058	-0.964081	-0.650693
C28	C	-1.060442	-1.451244	-0.573342
C29	C	-0.950718	-1.451179	-0.573317
C30	C	-0.950712	-1.585640	-0.439057
C31	C	-1.060434	-1.585709	-0.439089
C32	C	-1.060444	-1.373611	-0.650852
C33	C	-0.950720	-1.373546	-0.650827
C34	C	-0.232073	-1.518465	-0.506211
C35	C	-0.115296	-1.518506	-0.506229
C36	C	-0.506000	-1.518443	-0.780201
C37	C	-0.505955	-1.518475	-0.896977
C38	C	-0.506127	-0.792403	-0.506183
C39	C	-0.506113	-0.909179	-0.506177
C40	C	-0.438760	-1.585703	-0.951857
C41	C	-0.438722	-1.585728	-1.061581
C42	C	-0.573083	-1.451293	-1.061537
C43	C	-0.573115	-1.451263	-0.951815
C44	C	-0.361190	-1.663322	-0.951883
C45	C	-0.361152	-1.663347	-1.061607
C46	C	-0.506136	-1.518357	-0.233200
C47	C	-0.505885	-1.518529	-0.116424
H48	H	-0.384027	-1.118396	-0.384487
H49	H	-1.105092	-1.640489	-0.384448
H50	H	-0.629350	-1.103613	-0.732091
H51	H	-0.728301	-1.107818	-0.621400
H52	H	-0.283842	-1.634235	-1.095654
H53	H	-0.382947	-1.744718	-1.091387
H54	H	-0.384057	-0.919333	-0.384498
N55	N	-0.612493	-0.919034	-0.753111
H56	H	-0.593868	-0.977971	-0.802598
H57	H	-0.669375	-0.874432	-0.785340
N58	N	-1.099791	-1.402450	-0.758662
H59	H	-1.143801	-1.343271	-0.787395
H60	H	-1.038156	-1.415293	-0.806678
N61	N	-0.758798	-0.924591	-0.621623
H62	H	-0.787654	-0.880629	-0.680762
H63	H	-0.806796	-0.986164	-0.608620
N64	N	-1.105659	-1.271287	-0.612160
H65	H	-1.046803	-1.221794	-0.593444
H66	H	-1.150218	-1.239006	-0.669033
H67	H	-0.906032	-1.640356	-0.384394
H68	H	-0.279825	-1.641555	-0.922126
H69	H	-0.916601	-1.402625	-0.728143
H70	H	-0.921030	-1.292169	-0.628951
H71	H	-0.627829	-1.396515	-0.907136
H72	H	-0.627761	-1.396569	-1.106198
H73	H	-0.390361	-1.740594	-0.917849
