data_functionalizedCrystal
_audit_creation_method	'MofGen! by Chris Wilmer'
_symmetry_space_group_name_H-M	'P1'
_symmetry_Int_Tables_number	1
_symmetry_cell_setting	triclinic
loop_
_symmetry_equiv_pos_as_xyz
  x,y,z
_cell_length_a	18.760487
_cell_length_b	23.196402
_cell_length_c	23.196402
_cell_angle_alpha	60.005245
_cell_angle_beta	60.020943
_cell_angle_gamma	90.040510
loop_
_atom_site_label
_atom_site_type_symbol
_atom_site_fract_x
_atom_site_fract_y
_atom_site_fract_z
Zr1	Zr	0.686696	-0.075284	0.630996
O2	O	0.572874	-0.167386	0.751260
O3	O	0.721586	-0.047054	0.510731
O4	O	0.721578	-0.167317	0.630994
O5	O	0.572893	0.047747	0.630998
O6	O	0.838881	-0.167259	0.630994
O7	O	0.572883	-0.047123	0.630996
O8	O	0.838896	0.047870	0.415865
O9	O	0.572878	-0.167382	0.846127
O10	O	0.824012	-0.034966	0.560198
O11	O	0.736477	0.035791	0.560199
O12	O	0.736467	-0.105804	0.701794
O13	O	0.648933	-0.035047	0.701795
Zr14	Zr	0.873797	0.076115	0.630998
Zr15	Zr	0.873781	-0.075191	0.630996
Zr16	Zr	0.686712	0.076022	0.630998
Zr17	Zr	0.686702	-0.075278	0.782298
Zr18	Zr	0.873792	0.076109	0.479696
O19	O	0.838907	0.047885	0.751263
O20	O	0.838885	-0.167254	0.751260
O21	O	0.572897	0.047752	0.751263
O22	O	0.987619	0.168217	0.510734
O23	O	0.987596	-0.046922	0.510731
O24	O	0.721609	0.168085	0.510734
O25	O	0.987601	-0.046916	0.630996
O26	O	0.838916	0.168148	0.630999
O27	O	0.721613	0.168090	0.631000
O28	O	0.987610	0.047953	0.630997
O29	O	0.721585	-0.167308	0.846127
O30	O	0.838908	0.168139	0.415867
O31	O	0.987616	0.168213	0.415867
O32	O	0.987603	0.047944	0.415865
O33	O	0.572890	-0.047114	0.846129
O34	O	0.721598	-0.047040	0.846129
O35	O	0.824026	0.106635	0.560200
O36	O	0.911561	0.035878	0.560199
O37	O	0.824016	-0.034960	0.701795
O38	O	0.736482	0.035797	0.701796
C39	C	0.546232	0.000299	0.630997
C40	C	0.466810	0.000259	0.630997
C41	C	0.780240	0.000407	0.441741
C42	C	0.780238	0.000404	0.377509
C43	C	0.780267	0.189677	0.631000
C44	C	0.780273	0.253910	0.631001
C45	C	0.085296	-0.036438	0.704911
C46	C	0.176698	0.037517	0.557083
C47	C	0.251320	0.037457	0.557082
C48	C	0.242933	0.000447	0.630996
C49	C	0.159923	-0.036502	0.704913
C50	C	0.334335	0.074399	0.483167
C51	C	0.408963	0.074339	0.483163
C52	C	0.400576	0.037333	0.557078
C53	C	0.317560	0.000384	0.630997
C54	C	0.309173	-0.036626	0.704912
C55	C	0.226158	-0.073572	0.778832
C56	C	0.151537	-0.073508	0.778828
C57	C	0.475198	0.037269	0.557082
C58	C	0.383801	-0.036690	0.704913
C59	C	1.014261	0.000532	0.630997
C60	C	1.093683	0.000571	0.630997
C61	C	0.780227	-0.188846	0.630994
C62	C	0.780220	-0.253080	0.630993
C63	C	0.734580	0.247109	0.704910
C64	C	0.734567	0.307463	0.704911
C65	C	0.780265	0.374619	0.630999
C66	C	0.825960	0.381418	0.557080
C67	C	0.825964	0.321064	0.557081
C68	C	0.856802	0.498592	0.574372
C69	C	0.856800	0.558943	0.574374
C70	C	0.780250	0.560773	0.630993
C71	C	0.703703	0.502236	0.687623
C72	C	0.703707	0.441882	0.687624
C73	C	0.780265	0.440067	0.630989
C74	C	0.734539	0.619412	0.704908
C75	C	0.734523	0.679769	0.704906
C76	C	0.825925	0.753723	0.557073
C77	C	0.825932	0.693366	0.557077
C78	C	0.780240	0.626213	0.630997
C79	C	0.825924	-0.036532	0.347338
C80	C	0.825933	-0.036527	0.286977
C81	C	0.780238	0.000406	0.256801
C82	C	0.734550	0.037351	0.286976
C83	C	0.734550	0.037350	0.347330
C84	C	0.703696	-0.004906	0.194771
C85	C	0.703693	-0.004910	0.134422
C86	C	0.780239	0.000413	0.070646
C87	C	0.856787	0.005727	0.067234
C88	C	0.856787	0.005726	0.127588
C89	C	0.780233	0.000412	0.191356
C90	C	0.825938	-0.036519	-0.024976
C91	C	0.825949	-0.036508	-0.085342
C92	C	0.734558	0.037365	-0.085336
C93	C	0.734556	0.037359	-0.024977
C94	C	0.780244	0.000413	0.005202
C95	C	0.780253	0.000423	0.820253
C96	C	0.780255	0.000426	0.884485
C97	C	1.014255	0.000524	0.441740
C98	C	1.093675	0.000560	0.377509
C99	C	0.780260	0.189669	0.441744
C100	C	0.780265	0.253900	0.377513
C101	C	1.014274	0.189785	0.441743
C102	C	1.093701	0.254055	0.377512
C103	C	0.546219	-0.188954	0.820251
C104	C	0.466792	-0.253225	0.884481
C105	C	0.546239	0.000307	0.820253
C106	C	0.466819	0.000270	0.884485
C107	C	0.780233	-0.188838	0.820250
C108	C	0.780229	-0.253069	0.884481
C109	C	1.085271	-0.036408	0.347344
C110	C	1.159888	-0.036388	0.287000
C111	C	1.242907	0.000606	0.256817
C112	C	1.251309	0.037576	0.286987
C113	C	1.176693	0.037551	0.347335
C114	C	0.825967	0.321049	0.347350
C115	C	0.825968	0.381407	0.287007
C116	C	0.780271	0.374613	0.256823
C117	C	0.734564	0.307456	0.286992
C118	C	0.734558	0.247100	0.347338
C119	C	1.176701	0.247303	0.347348
C120	C	1.251338	0.307686	0.287005
C121	C	1.242974	0.374821	0.256823
C122	C	1.159965	0.381572	0.286993
C123	C	1.085330	0.321189	0.347339
C124	C	0.383793	-0.246473	0.914653
C125	C	0.309155	-0.306856	0.975015
C126	C	0.317520	-0.373990	1.005200
C127	C	0.400528	-0.380741	0.975027
C128	C	0.475163	-0.320359	0.914670
C129	C	0.475222	0.037233	0.914656
C130	C	0.400605	0.037196	0.975017
C131	C	0.317587	0.000200	1.005202
C132	C	0.309185	-0.036767	0.975029
C133	C	0.383801	-0.036734	0.914673
C134	C	0.825934	-0.246253	0.914645
C135	C	0.825947	-0.306598	0.974989
C136	C	0.780249	-0.373760	1.005172
C137	C	0.734542	-0.380575	0.975001
C138	C	0.734535	-0.320230	0.914655
H139	H	0.376960	-0.066820	0.765105
H140	H	1.303754	0.423982	0.207685
F141	F	0.563570	0.076610	0.882544
F142	F	0.217242	-0.112961	0.857495
H143	H	0.863178	0.326594	0.371918
F144	F	1.150928	-0.075736	0.254898
H145	H	0.863191	0.436083	0.262450
H146	H	1.153168	0.436241	0.262409
F147	F	1.322313	0.000627	0.192588
H148	H	0.017703	-0.066517	0.765095
F149	F	1.185623	0.175859	0.379463
H150	H	0.697359	0.301935	0.262408
F151	F	0.685879	-0.327495	0.882564
H152	H	0.407463	0.067301	0.999574
F153	F	0.063186	-0.112826	0.857492
H154	H	0.697345	0.192426	0.371889
F155	F	1.339673	0.300487	0.254904
F156	F	0.185620	0.076899	0.478422
H157	H	1.183547	0.067659	0.371887
H158	H	1.318912	0.067695	0.262404
H159	H	0.256837	0.000178	1.054348
H160	H	0.241581	-0.066888	0.999615
H161	H	0.641354	-0.009256	0.246708
H162	H	0.780283	0.423764	0.207686
F163	F	0.685945	0.175642	0.783583
F164	F	0.874569	-0.075835	0.007140
F165	F	0.780262	-0.437979	1.069400
F166	F	0.238078	-0.438249	1.069438
H167	H	0.407328	-0.435409	0.999611
H168	H	0.341156	0.104530	0.422990
F169	F	0.996998	0.328387	0.379432
F170	F	0.374871	-0.175028	0.882537
H171	H	0.241574	-0.301345	0.999572
H172	H	0.542743	-0.325865	0.890104
F173	F	0.374844	-0.076073	0.882565
F174	F	0.996923	-0.075787	0.379458
F175	F	0.685904	-0.452059	1.007137
F176	F	0.874576	-0.174780	0.882533
H177	H	0.863165	-0.301036	0.999547
F178	F	0.497307	0.113662	0.404492
F179	F	0.563541	0.076582	0.478418
F180	F	0.685908	0.547940	0.783579
F181	F	0.685943	0.300227	0.783579
H182	H	0.641368	0.503722	0.733728
F183	F	0.622241	0.379588	0.747890
H184	H	0.863127	0.808401	0.496892
F185	F	0.874569	0.700606	0.478411
F186	F	0.685869	0.672525	0.783575
F187	F	0.938282	0.496654	0.514106
F188	F	0.874591	0.452890	0.478417
F189	F	0.874600	0.328305	0.478413
F190	F	0.874552	-0.075853	0.379452
F191	F	0.874568	-0.075835	0.254854
F192	F	0.938266	0.621237	0.514101
H193	H	0.697353	0.067437	-0.109905
F194	F	0.938253	0.011384	0.123954
F195	F	0.938259	0.011390	-0.000637
F196	F	0.874575	-0.075826	-0.117450
H197	H	0.697350	0.067434	-0.000409
F198	F	0.685924	0.076663	0.254854
F199	F	0.685923	0.076666	0.379441
F200	F	0.622224	-0.010569	0.138061
