data_functionalizedCrystal
_audit_creation_method	'MofGen! by Chris Wilmer'
_symmetry_space_group_name_H-M	'P1'
_symmetry_Int_Tables_number	1
_symmetry_cell_setting	triclinic
loop_
_symmetry_equiv_pos_as_xyz
  x,y,z
_cell_length_a	19.288864
_cell_length_b	16.109301
_cell_length_c	18.366186
_cell_angle_alpha	89.992337
_cell_angle_beta	89.977106
_cell_angle_gamma	83.298863
loop_
_atom_site_label
_atom_site_type_symbol
_atom_site_fract_x
_atom_site_fract_y
_atom_site_fract_z
O1	O	0.921600	0.103716	-0.060785
O2	O	0.719373	0.117707	-0.060736
O3	O	0.826042	-0.010339	-0.060755
O4	O	0.814931	0.231761	-0.060767
O5	O	0.826024	-0.010345	0.060345
O6	O	0.719355	0.117701	0.060363
O7	O	0.921582	0.103710	0.060314
Zn8	Zn	0.820466	0.110704	0.079566
Zn9	Zn	0.820490	0.110712	-0.079988
O10	O	0.814913	0.231755	0.060333
C11	C	0.693487	0.117254	-0.000180
C12	C	0.616380	0.115902	-0.000161
C13	C	0.571863	0.191034	-0.000176
C14	C	0.499413	0.189764	-0.000184
C15	C	0.471483	0.113359	-0.000191
C16	C	0.516009	0.038218	-0.000172
C17	C	0.588458	0.039489	-0.000157
C18	C	0.363084	0.053298	-0.042639
C19	C	0.290636	0.052029	-0.042659
C20	C	0.248028	0.109433	-0.000235
C21	C	0.277874	0.168120	0.042199
C22	C	0.350323	0.169391	0.042214
C23	C	0.392925	0.111971	-0.000207
C24	C	0.124952	0.183193	-0.000258
C25	C	0.052501	0.181920	-0.000262
C26	C	0.069099	0.030372	-0.000257
C27	C	0.141548	0.031647	-0.000246
C28	C	0.169470	0.108060	-0.000250
C29	C	0.825583	-0.041315	-0.000205
C30	C	0.824234	-0.133606	-0.000203
C31	C	0.884391	-0.356084	-0.000229
C32	C	0.883118	-0.442800	-0.000235
C33	C	0.756559	-0.422493	-0.000201
C34	C	0.757833	-0.335778	-0.000201
C35	C	0.821751	-0.302577	-0.000211
C36	C	0.819204	-0.476007	-0.000217
C37	C	0.817823	-0.570028	-0.000223
C38	C	0.823133	-0.208549	-0.000206
C39	C	0.947469	0.104163	-0.000244
C40	C	1.024576	0.105514	-0.000268
C41	C	0.815372	0.262732	-0.000219
C42	C	0.816722	0.355022	-0.000225
N43	N	0.820455	0.110698	0.188457
N44	N	0.820506	0.110712	-0.188879
C45	C	0.867703	0.054027	0.226549
C46	C	0.867707	0.054023	0.302777
C47	C	0.820470	0.110705	0.340910
C48	C	0.773213	0.167380	0.302808
C49	C	0.773205	0.167377	0.226582
C50	C	0.811353	0.186459	0.461668
C51	C	0.811365	0.186463	0.537893
C52	C	0.820490	0.110715	0.576017
C53	C	0.829616	0.034960	0.537908
C54	C	0.829609	0.034956	0.461681
C55	C	0.820473	0.110715	0.423564
C56	C	0.867746	0.054036	0.696764
C57	C	0.867745	0.054031	0.772993
C58	C	0.773254	0.167395	0.773023
C59	C	0.773251	0.167392	0.696796
C60	C	0.820500	0.110714	0.658671
H61	H	0.463160	0.250947	-0.000194
H62	H	0.397770	0.006551	-0.077190
O63	O	0.231928	0.230040	0.087960
H64	H	0.246749	0.221703	0.146120
H65	H	0.624704	-0.021694	-0.000145
H66	H	0.046359	-0.031839	-0.000308
H67	H	0.936438	-0.329054	-0.000239
O68	O	0.950683	-0.500508	-0.000252
H69	H	0.939062	-0.566385	-0.000258
O70	O	0.690269	-0.278056	-0.000173
H71	H	0.645608	-0.315710	-0.000152
H72	H	0.734779	0.213542	0.665779
O73	O	0.722273	0.228522	0.343940
H74	H	0.731107	0.293304	0.329285
H75	H	0.147687	0.245413	-0.000251
H76	H	0.704519	-0.449537	-0.000191
H77	H	0.906175	0.007874	0.195510
O78	O	0.801525	0.268165	0.578995
H79	H	0.847924	0.273363	0.613689
O80	O	0.382513	0.232681	0.087984
H81	H	0.440047	0.223922	0.080861
O82	O	0.722248	0.228508	0.185489
H83	H	0.689402	0.267927	0.224808
O84	O	0.801508	0.268158	0.420541
H85	H	0.843964	0.306052	0.435132
O86	O	0.601981	0.273446	-0.000159
H87	H	0.558849	0.325477	-0.000160
O88	O	0.918677	-0.007093	0.343877
H89	H	0.951534	-0.046500	0.304559
H90	H	0.016255	0.243104	-0.000270
H91	H	0.177795	-0.029534	-0.000238
O92	O	0.839439	-0.046743	0.420574
H93	H	0.845780	-0.099419	0.459884
O94	O	0.839463	-0.046755	0.579005
H95	H	0.793074	-0.051963	0.613752
O96	O	0.918695	-0.007102	0.655635
H97	H	0.951544	-0.046521	0.694933
H98	H	0.906218	0.007878	0.804009
O99	O	0.258446	-0.011272	-0.088415
H100	H	0.300245	-0.050990	-0.117897
H101	H	0.734789	0.213542	0.804071
H102	H	0.493264	-0.023992	-0.000188
