data_functionalizedCrystal
_audit_creation_method	'MofGen! by Chris Wilmer'
_symmetry_space_group_name_H-M	'P1'
_symmetry_Int_Tables_number	1
_symmetry_cell_setting	triclinic
loop_
_symmetry_equiv_pos_as_xyz
  x,y,z
_cell_length_a	14.853567
_cell_length_b	14.853566
_cell_length_c	13.930277
_cell_angle_alpha	89.995631
_cell_angle_beta	89.999243
_cell_angle_gamma	83.634672
loop_
_atom_site_label
_atom_site_type_symbol
_atom_site_fract_x
_atom_site_fract_y
_atom_site_fract_z
O1	O	0.117698	1.196369	-0.079759
O2	O	0.617698	1.696369	0.420241
O3	O	0.131721	0.933909	-0.079774
O4	O	0.631721	1.433909	0.420226
O5	O	-0.006520	1.072150	-0.079769
O6	O	0.493480	1.572150	0.420231
O7	O	0.255939	1.058129	-0.079764
O8	O	0.755939	1.558129	0.420236
O9	O	-0.006523	1.072131	0.079893
O10	O	0.493477	1.572131	0.579893
O11	O	0.131718	0.933890	0.079888
O12	O	0.631718	1.433890	0.579888
O13	O	0.117695	1.196350	0.079903
O14	O	0.617695	1.696350	0.579903
Zn15	Zn	0.124706	1.065117	0.105245
Zn16	Zn	0.624706	1.565117	0.605245
Zn17	Zn	0.124710	1.065142	-0.105116
Zn18	Zn	0.624710	1.565142	0.394884
O19	O	0.255936	1.058109	0.079898
O20	O	0.755936	1.558109	0.579898
C21	C	0.131084	0.900311	0.000055
C22	C	0.631084	1.400311	0.500055
C23	C	0.129181	0.800227	0.000049
C24	C	0.629181	1.300227	0.500049
C25	C	0.121132	0.377053	-0.086966
C26	C	0.621132	0.877053	0.413034
C27	C	0.121129	0.377053	0.087103
C28	C	0.621129	0.877053	0.587103
C29	C	0.122916	0.471087	0.087101
C30	C	0.622916	0.971087	0.587101
C31	C	0.123813	0.518108	0.000063
C32	C	0.623813	1.018108	0.500063
C33	C	0.122922	0.471095	-0.086972
C34	C	0.622922	0.971095	0.413028
C35	C	0.123817	0.518106	0.174134
C36	C	0.623817	1.018106	0.674134
C37	C	0.125605	0.612146	0.174134
C38	C	0.625605	1.112146	0.674134
C39	C	0.126495	0.659170	0.087095
C40	C	0.626495	1.159170	0.587095
C41	C	0.125603	0.612151	0.000057
C42	C	0.625603	1.112151	0.500057
C43	C	0.126499	0.659172	-0.086980
C44	C	0.626499	1.159172	0.413020
C45	C	0.125601	0.612156	-0.174019
C46	C	0.625601	1.112156	0.325981
C47	C	0.123812	0.518119	-0.174010
C48	C	0.623812	1.018119	0.325990
C49	C	0.128284	0.753206	0.087086
C50	C	0.628284	1.253206	0.587086
C51	C	0.128290	0.753214	-0.086986
C52	C	0.628290	1.253214	0.413014
C53	C	-0.040111	1.071505	0.000059
C54	C	0.459889	1.571505	0.500059
C55	C	-0.140194	1.069601	0.000051
C56	C	0.359806	1.569601	0.500051
C57	C	-0.552728	0.979435	0.000064
C58	C	-0.052728	1.479435	0.500064
C59	C	-0.574009	1.143668	0.000073
C60	C	-0.074009	1.643668	0.500073
C61	C	-0.479976	1.145458	0.000067
C62	C	0.020024	1.645458	0.500067
C63	C	-0.422313	1.064236	0.000061
C64	C	0.077687	1.564236	0.500061
C65	C	-0.458685	0.981223	0.000061
C66	C	0.041315	1.481223	0.500061
C67	C	-0.443597	1.228470	0.000078
C68	C	0.056403	1.728470	0.500078
C69	C	-0.349558	1.230263	0.000073
C70	C	0.150442	1.730263	0.500073
C71	C	-0.291894	1.149040	0.000060
C72	C	0.208106	1.649040	0.500060
C73	C	-0.328271	1.066023	0.000059
C74	C	0.171729	1.566023	0.500059
C75	C	-0.270608	0.984801	0.000053
C76	C	0.229392	1.484801	0.500053
C77	C	-0.306984	0.901784	0.000045
C78	C	0.193016	1.401784	0.500045
C79	C	-0.401021	0.899999	0.000048
C80	C	0.098979	1.399999	0.500048
C81	C	-0.197856	1.150824	0.000057
C82	C	0.302144	1.650824	0.500057
C83	C	-0.176566	0.986588	0.000050
C84	C	0.323434	1.486588	0.500050
C85	C	0.289526	1.058754	0.000068
C86	C	0.789526	1.558754	0.500068
C87	C	0.389610	1.060658	0.000070
C88	C	0.889610	1.560658	0.500070
C89	C	0.118332	1.229948	0.000072
C90	C	0.618332	1.729948	0.500072
C91	C	0.120235	1.330032	0.000071
C92	C	0.620235	1.830032	0.500071
N93	N	0.124703	1.065106	0.248811
N94	N	0.624703	1.565106	0.748811
N95	N	0.124706	1.065160	-0.248682
N96	N	0.624706	1.565160	0.251318
C97	C	0.185899	1.003927	0.701078
C98	C	0.685899	1.503927	1.201078
C99	C	0.063514	1.126382	0.701052
C100	C	0.563514	1.626382	1.201052
C101	C	0.063511	1.126372	0.600556
C102	C	0.563511	1.626372	1.100556
C103	C	0.124704	1.065139	0.550317
C104	C	0.624704	1.565139	1.050317
C105	C	0.185900	1.003916	0.600573
C106	C	0.685900	1.503916	1.100573
C107	C	0.002322	1.187599	0.550292
C108	C	0.502322	1.687599	1.050292
C109	C	0.002318	1.187592	0.449791
C110	C	0.502318	1.687592	0.949791
C111	C	0.063507	1.126353	0.399549
C112	C	0.563507	1.626353	0.899549
C113	C	0.124705	1.065128	0.449812
C114	C	0.624705	1.565128	0.949812
C115	C	0.185898	1.003895	0.399572
C116	C	0.685898	1.503895	0.899572
C117	C	0.247092	0.942664	0.449833
C118	C	0.747092	1.442664	0.949833
C119	C	0.247089	0.942678	0.550332
C120	C	0.747089	1.442678	1.050332
C121	C	0.063510	1.126339	0.299050
C122	C	0.563510	1.626339	0.799050
C123	C	0.185899	1.003884	0.299067
C124	C	0.685899	1.503884	0.799067
H125	H	0.120405	0.338762	0.157965
H126	H	0.620405	0.838762	0.657965
H127	H	0.123079	0.479830	-0.244873
H128	H	0.623079	0.979830	0.255127
H129	H	-0.430646	0.832411	0.000043
H130	H	0.069354	1.332411	0.500043
H131	H	0.013690	1.176196	0.258133
H132	H	0.513690	1.676196	0.758133
H133	H	-0.047510	1.237447	0.408874
H134	H	0.452490	1.737447	0.908874
Br135	Br	0.122615	0.454287	0.292248
Br136	Br	0.622615	0.954287	0.792248
H137	H	-0.168244	1.218415	0.000070
H138	H	0.331756	1.718415	0.500070
H139	H	-0.620963	1.209796	0.000086
H140	H	-0.120963	1.709796	0.500086
H141	H	0.129017	0.791493	-0.157863
H142	H	0.629017	1.291493	0.342137
Br143	Br	-0.228717	0.791558	0.000049
Br144	Br	0.271283	1.291558	0.500049
H145	H	0.235726	0.954017	0.258169
H146	H	0.735726	1.454017	0.758169
H147	H	0.129025	0.791482	0.157952
H148	H	0.629025	1.291482	0.657952
H149	H	-0.129622	0.920446	0.000041
H150	H	0.370378	1.420446	0.500041
H151	H	0.013696	1.176241	0.741960
H152	H	0.513696	1.676241	1.241960
Br153	Br	0.126828	0.675980	-0.292137
Br154	Br	0.626828	1.175980	0.207863
H155	H	0.296920	0.892811	0.408917
H156	H	0.796920	1.392811	0.908917
H157	H	0.296912	0.892827	0.591260
H158	H	0.796912	1.392827	1.091260
Br159	Br	0.268939	0.920826	0.769282
Br160	Br	0.768939	1.420826	1.269282
Br161	Br	-0.080715	1.270707	0.618470
Br162	Br	0.419285	1.770707	1.118470
H163	H	0.120396	0.338769	-0.157831
H164	H	0.620396	0.838769	0.342169
Br165	Br	0.126824	0.675946	0.292255
Br166	Br	0.626824	1.175946	0.792255
H167	H	-0.582349	0.911845	0.000053
H168	H	-0.082349	1.411845	0.500053
H169	H	-0.490552	1.294597	0.000091
H170	H	0.009448	1.794597	0.500091
Br171	Br	-0.300199	1.342926	0.000070
Br172	Br	0.199801	1.842926	0.500070
