data_functionalizedCrystal
_audit_creation_method	'MofGen! by Chris Wilmer'
_symmetry_space_group_name_H-M	'P1'
_symmetry_Int_Tables_number	1
_symmetry_cell_setting	triclinic
loop_
_symmetry_equiv_pos_as_xyz
  x,y,z
_cell_length_a	19.288840
_cell_length_b	10.654551
_cell_length_c	17.766277
_cell_angle_alpha	90.003398
_cell_angle_beta	90.016621
_cell_angle_gamma	83.805722
loop_
_atom_site_label
_atom_site_type_symbol
_atom_site_fract_x
_atom_site_fract_y
_atom_site_fract_z
O1	O	0.922389	0.156505	0.062717
O2	O	0.720265	0.177670	0.062691
O3	O	0.825974	-0.015752	0.062703
O4	O	0.816680	0.349927	0.062705
O5	O	0.825955	-0.015758	-0.062486
O6	O	0.720246	0.177665	-0.062498
O7	O	0.922370	0.156499	-0.062471
Cu8	Cu	0.821306	0.167081	-0.073915
Cu9	Cu	0.821329	0.167088	0.074135
O10	O	0.816661	0.349921	-0.062483
C11	C	0.694374	0.176992	0.000093
C12	C	0.617256	0.174963	0.000083
C13	C	0.581057	0.173991	0.068325
C14	C	0.508598	0.172071	0.068335
C15	C	0.472342	0.171097	0.000098
C16	C	0.508550	0.172076	-0.068154
C17	C	0.581007	0.174009	-0.068161
C18	C	0.362504	0.094478	-0.052171
C19	C	0.290049	0.092538	-0.052161
C20	C	0.248859	0.165142	0.000117
C21	C	0.280135	0.239670	0.052398
C22	C	0.352592	0.241603	0.052391
C23	C	0.393774	0.169002	0.000098
C24	C	0.134091	0.162090	0.068374
C25	C	0.061630	0.160178	0.068381
C26	C	0.061584	0.160170	-0.068109
C27	C	0.134043	0.162095	-0.068114
C28	C	0.170293	0.163049	0.000130
C29	C	0.825282	-0.062538	0.000110
C30	C	0.823240	-0.201937	0.000113
C31	C	0.822292	-0.267417	0.068354
C32	C	0.820367	-0.398396	0.068354
C33	C	0.820342	-0.398404	-0.068133
C34	C	0.822261	-0.267426	-0.068133
C35	C	0.777137	-0.567532	0.150335
C36	C	0.776201	-0.633020	0.218580
C37	C	0.817463	-0.600366	0.278836
C38	C	0.859678	-0.502232	0.270850
C39	C	0.860620	-0.436752	0.202604
C40	C	0.819342	-0.469400	0.142351
C41	C	0.865498	-0.098289	-0.150109
C42	C	0.866445	-0.032809	-0.218355
C43	C	0.825187	-0.065461	-0.278618
C44	C	0.782982	-0.163602	-0.270639
C45	C	0.782035	-0.229083	-0.202393
C46	C	0.823292	-0.196421	-0.142130
C47	C	0.948261	0.157178	0.000128
C48	C	1.025379	0.159206	0.000143
C49	C	0.817353	0.396707	0.000111
C50	C	0.819396	0.536106	0.000113
N51	N	0.821296	0.167076	-0.178046
C52	C	0.863781	0.243046	-0.217420
C53	C	0.863792	0.243042	-0.296222
C54	C	0.821305	0.167083	-0.335646
C55	C	0.778816	0.091098	-0.296262
C56	C	0.778812	0.091094	-0.217462
C57	C	0.758671	0.163917	-0.460514
C58	C	0.758674	0.163930	-0.539312
C59	C	0.821319	0.167087	-0.578692
C60	C	0.883962	0.170258	-0.539264
C61	C	0.883958	0.170255	-0.460464
C62	C	0.821305	0.167078	-0.421092
C63	C	0.863820	0.243057	-0.703513
C64	C	0.863832	0.243045	-0.782316
C65	C	0.778850	0.091107	-0.782355
C66	C	0.778844	0.091113	-0.703553
C67	C	0.821328	0.167094	-0.664137
N68	N	0.821345	0.167083	0.178265
H69	H	0.610480	0.174801	-0.123734
H70	H	0.898389	0.304910	-0.328287
N71	N	0.733030	0.009164	-0.824865
H72	H	0.699296	0.063989	-0.857572
H73	H	0.706162	-0.038949	-0.787909
N74	N	0.738482	-0.198826	-0.335637
H75	H	0.687778	-0.187890	-0.320281
H76	H	0.752429	-0.289732	-0.350071
N77	N	0.951517	0.173667	-0.417936
H78	H	0.991206	0.175668	-0.454834
H79	H	0.960057	0.095990	-0.385243
N80	N	0.819302	-0.469044	-0.141737
H81	H	0.775529	-0.512968	-0.144790
H82	H	0.861520	-0.533743	-0.144721
N83	N	0.732988	0.009150	-0.174988
H84	H	0.706074	-0.038977	-0.211918
H85	H	0.699293	0.064065	-0.142305
N86	N	0.816453	-0.670985	0.352446
H87	H	0.864904	-0.712017	0.364230
H88	H	0.783421	-0.738043	0.348312
N89	N	0.691115	0.160483	-0.581836
H90	H	0.651431	0.158455	-0.544934
H91	H	0.694226	0.082527	-0.614527
N92	N	0.736512	-0.334935	-0.193787
H93	H	0.701966	-0.314091	-0.151726
H94	H	0.766606	-0.415899	-0.181579
N95	N	0.951536	0.173671	-0.581725
H96	H	0.942037	0.173186	-0.637627
H97	H	0.984709	0.097243	-0.567938
N98	N	0.906147	-0.330918	0.193982
H99	H	0.932150	-0.320170	0.242509
H100	H	0.876062	-0.249967	0.181725
N101	N	0.732627	-0.602746	0.085345
H102	H	0.705751	-0.674856	0.100759
H103	H	0.763495	-0.629356	0.040978
H104	H	0.898434	0.304905	-0.814373
N105	N	0.691100	0.160504	-0.418043
H106	H	0.651417	0.158507	-0.454975
H107	H	0.682552	0.238176	-0.385347
H108	H	0.900815	0.047099	-0.224849
H109	H	0.823087	-0.214100	0.123924
H110	H	0.899089	-0.071684	-0.101038
N111	N	0.904195	-0.467030	0.335837
H112	H	0.897193	-0.523401	0.380282
H113	H	0.890298	-0.376094	0.350239
N114	N	0.826216	0.005158	-0.352229
H115	H	0.777767	0.046188	-0.364024
H116	H	0.842380	-0.055758	-0.393788
N117	N	0.022490	0.159109	-0.141709
H118	H	0.029823	0.237272	-0.171548
H119	H	-0.028889	0.157690	-0.131285
N120	N	0.909610	0.324976	-0.174906
H121	H	0.896351	0.416413	-0.188618
H122	H	0.960007	0.299850	-0.188624
H123	H	0.744245	0.029255	-0.671494
N124	N	0.730673	-0.738863	0.227195
H125	H	0.704667	-0.749606	0.178670
H126	H	0.696177	-0.717947	0.269292
N127	N	0.909640	0.325000	-0.660992
H128	H	0.936562	0.373121	-0.697897
H129	H	0.943327	0.270086	-0.628284
H130	H	0.032157	0.159394	0.123954
N131	N	0.620155	0.175015	0.141928
H132	H	0.586223	0.174106	0.185161
H133	H	0.644956	0.253647	0.144904
H134	H	0.163606	0.162880	0.123942
N135	N	0.173086	0.163137	-0.141723
H136	H	0.165730	0.084970	-0.171556
H137	H	0.224473	0.164559	-0.131315
N138	N	0.469537	0.171016	0.141938
H139	H	0.476889	0.249177	0.171780
H140	H	0.487438	0.093467	0.171706
N141	N	0.386327	0.321978	0.108775
H142	H	0.349244	0.367680	0.141898
H143	H	0.412133	0.385605	0.081218
H144	H	0.479026	0.171286	-0.123712
H145	H	0.264591	0.031846	-0.094728
N146	N	0.732995	0.009165	-0.338783
H147	H	0.699261	0.064001	-0.371485
H148	H	0.706125	-0.038954	-0.301831
N149	N	0.235721	0.317983	0.108792
H150	H	0.185073	0.305458	0.100864
H151	H	0.242182	0.410067	0.101791
H152	H	0.396036	0.035352	-0.094746
