data_functionalizedCrystal
_audit_creation_method	'MofGen! by Chris Wilmer'
_symmetry_space_group_name_H-M	'P1'
_symmetry_Int_Tables_number	1
_symmetry_cell_setting	triclinic
loop_
_symmetry_equiv_pos_as_xyz
  x,y,z
_cell_length_a	15.625020
_cell_length_b	15.625253
_cell_length_c	14.750488
_cell_angle_alpha	85.138960
_cell_angle_beta	94.861483
_cell_angle_gamma	89.779513
loop_
_atom_site_label
_atom_site_type_symbol
_atom_site_fract_x
_atom_site_fract_y
_atom_site_fract_z
O1	O	-1.101128	-0.212906	-0.389080
O2	O	-0.858799	-0.206803	-0.306837
O3	O	-0.976904	-0.088690	-0.389068
O4	O	-0.983023	-0.331019	-0.306850
O5	O	-1.010303	-0.055301	-0.252660
O6	O	-0.892198	-0.173414	-0.170430
O7	O	-1.134527	-0.179518	-0.252672
Zn8	Zn	-1.018665	-0.171165	-0.189893
Zn9	Zn	-0.974661	-0.215156	-0.369616
O10	O	-1.016422	-0.297631	-0.170442
C11	C	-0.844309	-0.187075	-0.228831
C12	C	-0.751374	-0.178025	-0.199626
C13	C	-0.990567	-0.040807	-0.330665
C14	C	-0.981510	0.052127	-0.359866
C15	C	-1.149016	-0.199246	-0.330680
C16	C	-1.241950	-0.208298	-0.359891
C17	C	-0.638588	-0.147069	-0.084112
C18	C	-0.725913	-0.155576	-0.111563
C19	C	-0.689512	-0.191972	-0.260274
C20	C	-0.602182	-0.183465	-0.232836
C21	C	-0.576728	-0.161014	-0.144754
C22	C	-0.540322	-0.197410	-0.293478
C23	C	-0.453000	-0.188907	-0.266041
C24	C	-0.427538	-0.166460	-0.177962
C25	C	-0.489406	-0.152512	-0.117317
C26	C	-0.565778	-0.219866	-0.381558
C27	C	-0.503918	-0.233811	-0.442200
C28	C	-0.416594	-0.225303	-0.414765
C29	C	-0.391132	-0.202855	-0.326686
C30	C	-0.354727	-0.239251	-0.475410
C31	C	-0.267405	-0.230748	-0.447973
C32	C	-0.303810	-0.194353	-0.299249
N33	N	-1.048703	-0.141142	-0.067239
C34	C	-1.042776	0.448776	-0.084119
C35	C	-1.034266	0.536098	-0.111573
C36	C	-0.997857	0.499689	-0.260277
C37	C	-1.006360	0.412362	-0.232834
C38	C	-1.028821	0.386913	-0.144755
C39	C	-0.992405	0.350499	-0.293469
C40	C	-1.000912	0.263180	-0.266030
C41	C	-1.023374	0.237723	-0.177955
C42	C	-1.037328	0.299593	-0.117315
C43	C	-0.969950	0.375950	-0.381550
C44	C	-0.955995	0.314087	-0.442185
C45	C	-0.964496	0.226766	-0.414744
C46	C	-0.986958	0.201309	-0.326670
C47	C	-0.950542	0.164896	-0.475384
C48	C	-0.959049	0.077576	-0.447945
C49	C	-0.995465	0.113990	-0.299230
C50	C	-1.002758	0.654487	-0.228842
C51	C	-1.011813	0.561554	-0.199635
N52	N	-0.944629	-0.245173	-0.492275
C53	C	-1.132567	-0.057342	0.025137
C54	C	-1.111520	-0.078367	-0.060721
C55	C	-1.006904	-0.182914	0.012106
C56	C	-1.027940	-0.161895	0.097972
C57	C	-1.090773	-0.099109	0.104479
C58	C	-0.986145	-0.203662	0.177315
C59	C	-1.007182	-0.182648	0.263173
C60	C	-1.070014	-0.119867	0.269689
C61	C	-1.111810	-0.078095	0.190338
C62	C	-0.923317	-0.266452	0.170806
C63	C	-0.881522	-0.308220	0.250148
C64	C	-0.902555	-0.287201	0.336009
C65	C	-0.965387	-0.224420	0.342524
C66	C	-0.860759	-0.328973	0.415360
C67	C	-0.881796	-0.307959	0.501218
C68	C	-0.986424	-0.203406	0.428383
H69	H	-0.283084	-0.176082	-0.227520
C70	C	-0.610585	-0.122363	0.012780
N71	N	-0.589492	-0.103754	0.085756
H72	H	-1.145561	-0.044350	-0.125324
C73	C	-0.791648	-0.398039	0.408187
N74	N	-0.739593	-0.450061	0.402786
C75	C	-1.020170	0.085991	-0.202337
N76	N	-1.038779	0.064902	-0.129361
H77	H	-1.030304	0.166621	-0.155617
H78	H	-1.045629	0.586467	-0.062189
H79	H	-0.937710	0.334821	-0.513901
H80	H	-1.183726	-0.006209	0.030432
H81	H	-1.162968	-0.026962	0.195633
H82	H	-0.776279	-0.144224	-0.062172
H83	H	-0.217035	-0.242106	-0.497353
H84	H	-0.906194	-0.283562	0.100892
C85	C	-1.093155	-0.096750	0.364136
N86	N	-1.110583	-0.079336	0.435275
H87	H	-1.061038	0.428053	-0.012387
H88	H	-0.932263	0.185631	-0.547101
C89	C	-1.062033	0.271595	-0.020422
N90	N	-1.080642	0.250506	0.052554
H91	H	-0.955747	-0.234037	0.006798
H92	H	-0.947685	0.027205	-0.497320
C93	C	-0.812405	-0.377280	0.242978
N94	N	-0.760342	-0.429295	0.237580
C95	C	-0.960592	0.472006	-0.411731
N96	N	-0.953542	0.544355	-0.434462
H97	H	-0.979572	0.520423	-0.331992
C98	C	-0.835818	-0.353903	0.588500
N99	N	-0.801187	-0.388510	0.654241
H100	H	-0.468680	-0.134240	-0.045588
C101	C	-0.331481	-0.157105	-0.147781
N102	N	-0.259130	-0.150057	-0.125050
H103	H	-0.375465	-0.257538	-0.547124
C104	C	-0.661836	-0.229218	-0.411737
N105	N	-0.734188	-0.236259	-0.434468
C106	C	-0.531929	-0.258502	-0.539090
N107	N	-0.553026	-0.277095	-0.612070
H108	H	-0.710249	-0.210255	-0.331989
H109	H	-1.037582	-0.152273	0.433678
