data_functionalizedCrystal
_audit_creation_method	'MofGen! by Chris Wilmer'
_symmetry_space_group_name_H-M	'P1'
_symmetry_Int_Tables_number	1
_symmetry_cell_setting	triclinic
loop_
_symmetry_equiv_pos_as_xyz
  x,y,z
_cell_length_a	13.032721
_cell_length_b	12.759401
_cell_length_c	12.759393
_cell_angle_alpha	89.981995
_cell_angle_beta	97.149631
_cell_angle_gamma	97.204582
loop_
_atom_site_label
_atom_site_type_symbol
_atom_site_fract_x
_atom_site_fract_y
_atom_site_fract_z
Zn1	Zn	-0.415982	1.553089	-0.647069
Zn2	Zn	-0.590759	1.530650	-0.493692
Zn3	Zn	-0.416032	1.377387	-0.471414
Zn4	Zn	-0.590685	1.355054	-0.669324
O5	O	-0.503365	1.454045	-0.570375
O6	O	-0.439177	1.697132	-0.626733
O7	O	-0.567634	1.510275	-0.343723
O8	O	-0.269788	1.419431	-0.476078
O9	O	-0.567585	1.680646	-0.514048
O10	O	-0.269751	1.548519	-0.605130
O11	O	-0.439262	1.397673	-0.327355
O12	O	-0.439190	1.227404	-0.497658
O13	O	-0.567458	1.381368	-0.813386
O14	O	-0.567507	1.210997	-0.643061
O15	O	-0.439104	1.526864	-0.797035
O16	O	-0.736987	1.488620	-0.535628
O17	O	-0.736933	1.359610	-0.664663
C18	C	-0.503347	1.181080	-0.570358
C19	C	-0.503364	1.064301	-0.570378
C20	C	-0.436623	1.018009	-0.629173
C21	C	-0.436633	0.908283	-0.629181
C22	C	-0.570136	0.891151	-0.511599
C23	C	-0.570119	1.000875	-0.511586
C24	C	-0.313456	0.774104	-0.651230
C25	C	-0.246724	0.727806	-0.710042
C26	C	-0.230798	0.765497	-0.810548
C27	C	-0.281619	0.849482	-0.852266
C28	C	-0.348359	0.895772	-0.793460
C29	C	-0.364265	0.858086	-0.692937
C30	C	-0.693298	1.135057	-0.489547
C31	C	-0.760044	1.181349	-0.430747
C32	C	-0.775981	1.143659	-0.330241
C33	C	-0.725178	1.059668	-0.288529
C34	C	-0.658432	1.013376	-0.347329
C35	C	-0.642493	1.051074	-0.447835
C36	C	-0.774878	1.419285	-0.605001
C37	C	-0.891032	1.404511	-0.619849
C38	C	-0.942810	1.461812	-0.562673
C39	C	-1.062862	1.446543	-0.578018
C40	C	-0.230791	1.488969	-0.535636
C41	C	-0.114637	1.503852	-0.520833
C42	C	-0.503267	1.454128	-0.844396
C43	C	-0.503226	1.454163	-0.961167
C44	C	-0.503383	1.728076	-0.570393
C45	C	-0.503391	1.844851	-0.570400
C46	C	-0.569983	1.378469	-1.134266
C47	C	-0.570027	1.378429	-1.024548
C48	C	-0.436369	1.529937	-1.007510
C49	C	-0.436320	1.529971	-1.117225
C50	C	-0.607421	1.249693	-0.879359
C51	C	-0.674287	1.173931	-0.833022
C52	C	-0.776238	1.144745	-0.881635
C53	C	-0.811344	1.191334	-0.976585
C54	C	-0.744483	1.267104	-1.022917
C55	C	-0.642518	1.296271	-0.974304
C56	C	-0.398937	1.658707	-1.262417
C57	C	-0.332081	1.734482	-1.308752
C58	C	-0.230128	1.763678	-1.260142
C59	C	-0.195026	1.717107	-1.165188
C60	C	-0.261882	1.641332	-1.118854
C61	C	-0.363834	1.612134	-1.167471
C62	C	-0.503386	1.454032	-0.297410
C63	C	-0.503133	1.454238	-0.180602
H64	H	-0.268655	0.880156	-0.934113
H65	H	-0.898264	1.522178	-0.502364
C66	C	-0.363181	1.087774	-0.693836
N67	N	-0.307859	1.140320	-0.742538
C68	C	-0.223263	1.590098	-1.014405
N69	N	-0.194175	1.551506	-0.935736
H70	H	-0.389731	0.964155	-0.827423
C71	C	-0.082872	1.749222	-1.111714
N72	N	0.001605	1.773416	-1.071438
C73	C	-0.849411	1.194581	-0.265565
N74	N	-0.904715	1.232934	-0.216850
C75	C	-0.742707	1.018207	-0.177966
N76	N	-0.755914	0.986980	-0.094687
H77	H	-1.070093	1.564222	-0.460521
C78	C	-0.849786	1.061401	-0.830662
N79	N	-0.905177	0.998621	-0.792267
C80	C	-1.123036	1.364990	-0.659501
N81	N	-1.168361	1.303563	-0.720871
C82	C	-0.951211	1.322961	-0.701328
N83	N	-0.996536	1.261535	-0.762698
H84	H	-0.624384	1.316800	-1.185864
C85	C	-0.157383	0.714572	-0.875234
N86	N	-0.102080	0.676216	-0.923948
C87	C	-0.815944	1.273728	-0.476643
N88	N	-0.858050	1.343305	-0.511213
C89	C	-0.783092	1.318346	-1.127359
N90	N	-0.812173	1.356934	-1.206032
H91	H	-0.894367	1.167573	-1.016152
C92	C	-0.635663	1.122678	-0.728584
N93	N	-0.606577	1.084075	-0.649922
H94	H	-0.205345	0.659426	-0.676066
C95	C	-0.495263	1.281780	-0.825885
N96	N	-0.410785	1.305949	-0.785602
C97	C	-0.675770	1.176524	-0.600112
N98	N	-0.662575	1.207756	-0.683391
H99	H	-0.381974	1.591597	-0.955896
H100	H	-0.326406	0.743417	-0.569384
C101	C	-0.156592	1.847044	-1.311110
N102	N	-0.101204	1.909833	-1.349496
H103	H	-0.360672	1.772405	-1.386066
H104	H	-0.481950	1.634925	-1.302016
H105	H	-0.624486	0.839497	-0.463733
H106	H	-0.617066	0.944986	-0.313359
