data_functionalizedCrystal
_audit_creation_method	'MofGen! by Chris Wilmer'
_symmetry_space_group_name_H-M	'P1'
_symmetry_Int_Tables_number	1
_symmetry_cell_setting	triclinic
loop_
_symmetry_equiv_pos_as_xyz
  x,y,z
_cell_length_a	12.645331
_cell_length_b	14.908520
_cell_length_c	14.908308
_cell_angle_alpha	96.360765
_cell_angle_beta	86.722124
_cell_angle_gamma	86.680290
loop_
_atom_site_label
_atom_site_type_symbol
_atom_site_fract_x
_atom_site_fract_y
_atom_site_fract_z
Zn1	Zn	1.558096	0.389900	0.532580
Zn2	Zn	1.557976	0.532545	0.389950
Zn3	Zn	1.391677	0.381200	0.381236
Zn4	Zn	1.369928	0.541215	0.541257
O5	O	1.469419	0.461215	0.461256
O6	O	1.706425	0.408835	0.513674
O7	O	1.544967	0.505200	0.262134
O8	O	1.422905	0.255689	0.394034
O9	O	1.706337	0.513636	0.408885
O10	O	1.545172	0.262081	0.505225
O11	O	1.422788	0.394007	0.255731
O12	O	1.240447	0.402413	0.402448
O13	O	1.385838	0.528412	0.666767
O14	O	1.224468	0.519976	0.520015
O15	O	1.524084	0.417242	0.660391
O16	O	1.523879	0.660360	0.417300
O17	O	1.385721	0.666730	0.528465
C18	C	1.452454	0.696389	0.474789
C19	C	1.445291	0.796999	0.480609
C20	C	1.193993	0.461192	0.461228
C21	C	1.076161	0.461205	0.461239
C22	C	1.452548	0.474765	0.697339
C23	C	1.445359	0.480539	0.797943
C24	C	0.918609	0.386947	0.387645
C25	C	1.041178	0.387111	0.387349
C26	C	1.026664	0.555055	0.440677
C27	C	0.904128	0.554643	0.440181
C28	C	0.903865	0.442537	0.555716
C29	C	1.026662	0.440376	0.555061
C30	C	1.745921	0.461239	0.461284
C31	C	1.863750	0.461249	0.461296
C32	C	1.486478	0.225124	0.447689
C33	C	1.493748	0.124517	0.441908
C34	C	1.575827	0.979367	0.375882
C35	C	1.569101	1.073899	0.381348
C36	C	1.425118	1.080596	0.497009
C37	C	1.431844	0.986064	0.491544
C38	C	1.507200	0.935453	0.430977
C39	C	1.513921	0.840919	0.425508
C40	C	1.369944	0.847618	0.541173
C41	C	1.363217	0.942150	0.546639
C42	C	1.486290	0.447653	0.226087
C43	C	1.493703	0.441624	0.125469
C44	C	1.575803	0.375606	0.980352
C45	C	1.569051	0.381028	1.074879
C46	C	1.425100	0.496800	1.081525
C47	C	1.431851	0.491378	0.986998
C48	C	1.507207	0.430780	0.936415
C49	C	1.513962	0.425363	0.841887
C50	C	1.370007	0.541130	0.848535
C51	C	1.363255	0.546552	0.943062
H52	H	1.075184	0.317346	0.399607
H53	H	0.876173	0.375587	0.575476
O54	O	1.290156	0.991421	0.605518
C55	C	1.259443	1.105090	0.733910
C56	C	1.342298	1.049369	0.667279
H57	H	1.301569	1.151942	0.783872
H58	H	1.203888	1.147081	0.694920
H59	H	1.211525	1.057444	0.772305
H60	H	1.390290	1.096949	0.628866
H61	H	1.397781	1.007368	0.706320
O62	O	0.887985	0.303489	0.402002
C63	C	0.742429	0.207238	0.414358
C64	C	0.776971	0.301787	0.398050
H65	H	0.652670	0.205837	0.411187
H66	H	0.783119	0.154542	0.360165
H67	H	0.765931	0.191355	0.483866
H68	H	0.753476	0.317757	0.328570
H69	H	0.736290	0.354430	0.452296
H70	H	1.314060	0.811853	0.586033
H71	H	0.867113	0.611582	0.491784
O72	O	1.649032	0.316671	0.931345
C73	C	1.791154	0.202462	0.934728
C74	C	1.708254	0.269151	0.990334
H75	H	1.839072	0.164037	0.982398
H76	H	1.749119	0.152531	0.887769
H77	H	1.846694	0.241501	0.892842
H78	H	1.652689	0.230187	1.032273
H79	H	1.750358	0.319081	1.037236
O80	O	1.052697	0.622677	0.502822
C81	C	1.138935	0.762260	0.529454
C82	C	1.109500	0.685748	0.458978
H83	H	1.184884	0.813262	0.494035
H84	H	1.063486	0.797505	0.565798
H85	H	1.190293	0.732612	0.580720
H86	H	1.058170	0.715322	0.407655
H87	H	1.184992	0.650513	0.422702
H88	H	1.301901	0.595887	0.984259
H89	H	1.575322	0.376022	0.800703
H90	H	1.624907	0.336097	1.110648
O91	O	1.351983	0.555625	1.130807
C92	C	1.277713	0.615205	1.279378
C93	C	1.360591	0.548569	1.223678
H94	H	1.284630	0.609509	1.354473
H95	H	1.292362	0.687159	1.265076
H96	H	1.194732	0.598233	1.259808
H97	H	1.443606	0.565458	1.243215
H98	H	1.345850	0.476634	1.237985
H99	H	1.074405	0.399036	0.317268
O100	O	1.303417	0.594637	0.805710
C101	C	1.250072	0.637643	0.663036
C102	C	1.325525	0.576978	0.711418
H103	H	1.267934	0.623401	0.586794
H104	H	1.164392	0.622809	0.680630
H105	H	1.262080	0.711688	0.685878
H106	H	1.313611	0.502913	0.688603
H107	H	1.411177	0.591890	0.693825
H108	H	0.879036	0.571158	0.371318
O109	O	1.067208	0.575314	0.359423
C110	C	1.030385	0.608326	0.209274
C111	C	0.984318	0.585390	0.301246
H112	H	0.963394	0.616461	0.162206
H113	H	1.072169	0.674095	0.219401
H114	H	1.089720	0.551334	0.178105
H115	H	0.924942	0.642325	0.332465
H116	H	0.942600	0.519594	0.291061
O117	O	1.054426	0.500650	0.623615
C118	C	1.039823	0.547884	0.783971
C119	C	1.008318	0.479545	0.706424
H120	H	1.002541	0.530857	0.850938
H121	H	1.129906	0.544408	0.786327
H122	H	1.010285	0.619028	0.772040
H123	H	1.037784	0.408370	0.718301
H124	H	0.918232	0.483100	0.704089
O125	O	1.649108	0.930336	0.317025
C126	C	1.791148	0.933663	0.202824
C127	C	1.708226	0.989299	0.269459
H128	H	1.838952	0.981310	0.164336
H129	H	1.846795	0.891756	0.241814
H130	H	1.749026	0.886720	0.152944
H131	H	1.750258	1.036292	0.319355
H132	H	1.652584	1.031145	0.230410
H133	H	0.891693	0.398718	0.317971
H134	H	0.867485	0.496723	0.610525
O135	O	1.065531	0.357951	0.573641
C136	C	1.025358	0.207949	0.604645
C137	C	0.981195	0.301250	0.583597
H138	H	0.957192	0.162086	0.612720
H139	H	1.083421	0.176511	0.546841
H140	H	1.068160	0.216203	0.670027
H141	H	0.938341	0.293075	0.518243
H142	H	0.923185	0.332655	0.641454
O143	O	1.635627	1.116672	0.327817
C144	C	1.651209	1.216429	0.211812
C145	C	1.575733	1.168047	0.272378
H146	H	1.602816	1.257962	0.166960
H147	H	1.700435	1.263064	0.255963
H148	H	1.706265	1.164017	0.167629
H149	H	1.520611	1.220394	0.316571
H150	H	1.526581	1.121396	0.228174
H151	H	1.575277	0.799712	0.376190
H152	H	1.363773	1.121820	0.546325
