data_functionalizedCrystal
_audit_creation_method	'MofGen! by Chris Wilmer'
_symmetry_space_group_name_H-M	'P1'
_symmetry_Int_Tables_number	1
_symmetry_cell_setting	triclinic
loop_
_symmetry_equiv_pos_as_xyz
  x,y,z
_cell_length_a	23.532407
_cell_length_b	23.532407
_cell_length_c	12.996460
_cell_angle_alpha	90.004951
_cell_angle_beta	90.000844
_cell_angle_gamma	82.848678
loop_
_atom_site_label
_atom_site_type_symbol
_atom_site_fract_x
_atom_site_fract_y
_atom_site_fract_z
O1	O	0.755261	0.069131	0.085449
O2	O	0.589398	0.079134	0.085480
O3	O	0.677331	-0.008799	0.085445
O4	O	0.667328	0.157064	0.085484
O5	O	0.677320	-0.008794	-0.085689
O6	O	0.589387	0.079139	-0.085653
O7	O	0.755250	0.069136	-0.085685
Cu8	Cu	0.672317	0.074138	-0.101295
Cu9	Cu	0.672331	0.074132	0.101091
O10	O	0.667317	0.157069	-0.085649
C11	C	0.568176	0.078882	-0.000083
C12	C	0.504959	0.078116	-0.000071
C13	C	0.105856	0.125350	-0.000107
C14	C	0.046456	0.124638	-0.000113
O15	O	0.009711	0.168424	-0.000140
N16	N	0.023830	0.072362	-0.000124
C17	C	0.060607	0.020794	-0.000139
O18	O	0.035908	-0.023737	-0.000149
C19	C	0.120006	0.021506	-0.000140
C20	C	0.142629	0.073785	-0.000118
C21	C	0.128479	0.177625	-0.000087
C22	C	0.187876	0.178336	-0.000078
C23	C	0.224649	0.126772	-0.000090
C24	C	0.202025	0.074497	-0.000110
C25	C	0.156783	-0.030062	-0.000162
C26	C	0.216185	-0.029345	-0.000163
C27	C	0.238808	0.022934	-0.000142
C28	C	0.298194	0.023643	-0.000113
N29	N	0.320820	0.075920	-0.000103
C30	C	0.284048	0.127484	-0.000091
C31	C	-0.064135	0.019302	-0.000139
C32	C	-0.123533	0.018589	-0.000130
C33	C	-0.137680	0.122434	-0.000107
C34	C	-0.078281	0.123146	-0.000108
C35	C	-0.041509	0.071578	-0.000128
C36	C	0.408784	0.128974	-0.000072
C37	C	0.468186	0.129680	-0.000060
C38	C	0.482329	0.025836	-0.000089
C39	C	0.422932	0.025129	-0.000096
C40	C	0.386160	0.076702	-0.000091
O41	O	0.334974	-0.020119	-0.000091
O42	O	0.308755	0.172007	-0.000094
C43	C	0.677071	-0.030013	-0.000125
C44	C	0.676305	-0.093230	-0.000132
C45	C	0.723539	-0.492333	-0.000085
C46	C	0.722827	-0.551733	-0.000077
O47	O	0.766613	-0.588478	-0.000047
N48	N	0.670551	-0.574359	-0.000068
C49	C	0.618983	-0.537582	-0.000056
O50	O	0.574452	-0.562281	-0.000047
C51	C	0.619695	-0.478182	-0.000057
C52	C	0.671974	-0.455560	-0.000076
C53	C	0.775814	-0.469710	-0.000104
C54	C	0.776525	-0.410313	-0.000113
C55	C	0.724961	-0.373540	-0.000105
C56	C	0.672685	-0.396164	-0.000086
C57	C	0.568127	-0.441406	-0.000038
C58	C	0.568844	-0.382004	-0.000037
C59	C	0.621123	-0.359381	-0.000057
C60	C	0.621832	-0.299995	-0.000087
N61	N	0.674109	-0.277368	-0.000097
C62	C	0.725673	-0.314141	-0.000105
C63	C	0.617491	-0.662324	-0.000053
C64	C	0.616778	-0.721722	-0.000060
C65	C	0.720623	-0.735869	-0.000079
C66	C	0.721335	-0.676470	-0.000080
C67	C	0.669767	-0.639698	-0.000062
C68	C	0.727163	-0.189405	-0.000127
C69	C	0.727869	-0.130003	-0.000141
C70	C	0.624025	-0.115860	-0.000117
C71	C	0.623318	-0.175257	-0.000108
C72	C	0.674891	-0.212029	-0.000110
O73	O	0.578070	-0.263215	-0.000113
O74	O	0.770196	-0.289433	-0.000101
C75	C	0.776472	0.069388	-0.000120
C76	C	0.839689	0.070154	-0.000124
C77	C	0.667577	0.178283	-0.000078
C78	C	0.668343	0.241500	-0.000063
N79	N	0.672312	0.074142	-0.243642
C80	C	0.672315	0.074143	-0.336748
C81	C	0.672320	0.074140	-0.453553
C82	C	0.672327	0.074133	-0.546652
C83	C	0.672333	0.074130	-0.663464
N84	N	0.672340	0.074124	0.243438
H85	H	0.138375	-0.072634	-0.000180
N86	N	-0.146628	-0.034818	-0.000129
N87	N	-0.113782	-0.080851	-0.000134
H88	H	-0.130090	-0.118572	-0.000137
H89	H	0.526850	-0.352066	-0.000022
N90	N	0.773303	-0.773429	-0.000089
N91	N	0.808145	-0.771541	-0.072231
H92	H	0.845349	-0.798067	-0.072239
N93	N	0.563376	-0.744826	-0.000030
N94	N	0.551394	-0.776383	0.072117
H95	H	0.513677	-0.792698	0.072145
H96	H	0.769159	-0.219337	-0.000124
N97	N	0.090924	0.230303	-0.000094
N98	N	0.092828	0.265148	-0.072223
H99	H	0.066308	0.302356	-0.072224
N100	N	0.564807	-0.624772	-0.000039
N101	N	0.518139	-0.644987	-0.000029
H102	H	0.480930	-0.618469	-0.000017
N103	N	0.253739	-0.082028	-0.000195
N104	N	0.233527	-0.128698	-0.000219
H105	H	0.260047	-0.165905	-0.000241
H106	H	0.525555	-0.459814	-0.000015
N107	N	0.781269	-0.106886	-0.000169
N108	N	0.793247	-0.075326	-0.072315
H109	H	0.830959	-0.059000	-0.072335
H110	H	0.404512	-0.017441	-0.000098
H111	H	0.580748	-0.193677	-0.000120
H112	H	0.819097	-0.391900	-0.000125
H113	H	0.582043	-0.085909	-0.000113
N114	N	0.371221	0.181649	-0.000073
N115	N	0.336499	0.192846	-0.072209
H116	H	0.309969	0.230047	-0.072205
N117	N	0.491283	0.183091	-0.000053
N118	N	0.479909	0.217776	-0.072185
H119	H	0.496219	0.255497	-0.072183
N120	N	0.210970	0.231744	-0.000055
N121	N	0.178121	0.277775	-0.000046
H122	H	0.194427	0.315498	-0.000031
N123	N	0.774742	-0.653374	-0.000104
N124	N	0.820775	-0.686220	-0.000120
H125	H	0.858497	-0.669912	-0.000137
N126	N	-0.055185	0.176553	-0.000085
N127	N	-0.088031	0.222586	-0.000069
H128	H	-0.071723	0.260308	-0.000055
H129	H	-0.167632	0.164421	-0.000102
H130	H	-0.034198	-0.022693	-0.000146
N131	N	0.519899	-0.026832	-0.000130
N132	N	0.518006	-0.061667	-0.072289
H133	H	0.544542	-0.098864	-0.072328
N134	N	0.828496	-0.507259	-0.000105
N135	N	0.875162	-0.487040	-0.000118
H136	H	0.912372	-0.513555	-0.000126
