data_functionalizedCrystal
_audit_creation_method	'MofGen! by Chris Wilmer'
_symmetry_space_group_name_H-M	'P1'
_symmetry_Int_Tables_number	1
_symmetry_cell_setting	triclinic
loop_
_symmetry_equiv_pos_as_xyz
  x,y,z
_cell_length_a	12.784890
_cell_length_b	12.837942
_cell_length_c	11.892095
_cell_angle_alpha	94.302569
_cell_angle_beta	86.513306
_cell_angle_gamma	83.967749
loop_
_atom_site_label
_atom_site_type_symbol
_atom_site_fract_x
_atom_site_fract_y
_atom_site_fract_z
O1	O	1.417036	-0.000745	-0.093968
O2	O	1.112037	0.043249	-0.093978
O3	O	1.257773	-0.129041	-0.093966
O4	O	1.271300	0.171544	-0.093980
O5	O	1.245620	-0.114696	0.094040
O6	O	1.099884	0.057593	0.094028
O7	O	1.404883	0.013600	0.094038
Zn8	Zn	1.250454	0.037874	0.123883
Zn9	Zn	1.266466	0.018974	-0.123823
O10	O	1.259147	0.185889	0.094027
C11	C	1.066651	0.053282	0.000024
C12	C	0.949520	0.061796	0.000020
C13	C	0.781351	0.168496	0.000014
C14	C	0.891406	0.160503	0.000014
C15	C	0.897570	-0.028926	0.000023
C16	C	0.787515	-0.020933	0.000022
C17	C	0.729409	0.077781	0.000020
C18	C	0.619351	0.085774	0.000027
C19	C	0.625518	-0.103655	0.000028
C20	C	0.735573	-0.111648	0.000028
C21	C	1.247128	-0.160077	0.000036
C22	C	1.233500	-0.273926	0.000034
C23	C	1.397333	-0.529654	0.000015
C24	C	1.384533	-0.636626	0.000013
C25	C	1.195103	-0.594845	0.000019
C26	C	1.207902	-0.487873	0.000021
C27	C	1.309020	-0.455282	0.000021
C28	C	1.321818	-0.348307	0.000031
C29	C	1.132389	-0.306529	0.000029
C30	C	1.119590	-0.413501	0.000027
C31	C	1.450270	0.003566	0.000034
C32	C	1.567402	-0.004948	0.000030
C33	C	1.269793	0.216925	0.000022
C34	C	1.283421	0.330774	0.000016
N35	N	1.239534	0.050772	0.292937
N36	N	1.277394	0.006068	-0.292877
C37	C	1.353378	-0.083737	0.529593
C38	C	1.345753	-0.074715	0.647935
C39	C	1.216654	0.077832	0.647963
C40	C	1.224279	0.068810	0.529621
C41	C	1.292644	-0.011976	0.470441
C42	C	1.300274	-0.020993	0.352097
C43	C	1.171170	0.131550	0.352127
C44	C	1.163545	0.140572	0.470469
H45	H	0.572042	0.166152	0.000031
Br46	Br	1.534557	-0.485415	0.000050
H47	H	1.409051	-0.149511	0.481408
H48	H	0.933693	0.234373	0.000012
Br49	Br	0.702485	0.302462	0.000037
H50	H	0.944900	-0.109295	0.000016
Br51	Br	0.814441	-0.245610	0.000030
Br52	Br	1.393059	-0.130626	0.271782
Br53	Br	0.555019	-0.226775	0.000052
Br54	Br	0.982366	-0.457743	0.000013
Br55	Br	1.459047	-0.304075	0.000043
H56	H	1.160985	0.143601	0.696163
Br57	Br	1.428175	-0.172114	0.728211
H58	H	1.107880	0.206345	0.518667
Br59	Br	1.504391	-0.737560	-0.000003
Br60	Br	1.057884	-0.639099	-0.000022
H61	H	1.060478	-0.245961	0.000043
H62	H	1.121720	0.189985	0.303952
