data_functionalizedCrystal
_audit_creation_method	'MofGen! by Chris Wilmer'
_symmetry_space_group_name_H-M	'P1'
_symmetry_Int_Tables_number	1
_symmetry_cell_setting	triclinic
loop_
_symmetry_equiv_pos_as_xyz
  x,y,z
_cell_length_a	12.759395
_cell_length_b	12.759394
_cell_length_c	12.759393
_cell_angle_alpha	89.970474
_cell_angle_beta	89.979644
_cell_angle_gamma	90.015393
loop_
_atom_site_label
_atom_site_type_symbol
_atom_site_fract_x
_atom_site_fract_y
_atom_site_fract_z
Zn1	Zn	1.606273	-0.418173	-0.594011
Zn2	Zn	1.606167	-0.593888	-0.418334
Zn3	Zn	1.430572	-0.418228	-0.418348
Zn4	Zn	1.430566	-0.593815	-0.593973
O5	O	1.518395	-0.506026	-0.506166
O6	O	1.753280	-0.441489	-0.570717
O7	O	1.582832	-0.570641	-0.271315
O8	O	1.453926	-0.271200	-0.441672
O9	O	1.753202	-0.570586	-0.441648
O10	O	1.583013	-0.271159	-0.570730
O11	O	1.453823	-0.441584	-0.271325
O12	O	1.283550	-0.441513	-0.441635
O13	O	1.453916	-0.570461	-0.740999
O14	O	1.283546	-0.570516	-0.570666
O15	O	1.583008	-0.441418	-0.741027
O16	O	1.582826	-0.740900	-0.441611
O17	O	1.453813	-0.740846	-0.570652
C18	C	1.245427	-0.506013	-0.506148
C19	C	1.128650	-0.506033	-0.506166
C20	C	1.128685	-0.640581	-0.640308
C21	C	1.073841	-0.707863	-0.707383
C22	C	0.964120	-0.707876	-0.707395
C23	C	0.909239	-0.640597	-0.640329
C24	C	0.964083	-0.573315	-0.573255
C25	C	1.073807	-0.573311	-0.573247
C26	C	0.964048	-0.438763	-0.439119
C27	C	1.073770	-0.438754	-0.439099
C28	C	0.909168	-0.371485	-0.372052
C29	C	0.964011	-0.304206	-0.304971
C30	C	1.073740	-0.304197	-0.304960
C31	C	1.128614	-0.371472	-0.372025
C32	C	1.518336	-0.778994	-0.506149
C33	C	1.518407	-0.895770	-0.506177
C34	C	1.652725	-0.895569	-0.640667
C35	C	1.719917	-0.950330	-0.707919
C36	C	1.719979	-1.060051	-0.707942
C37	C	1.652840	-1.115015	-0.640707
C38	C	1.585649	-1.060255	-0.573454
C39	C	1.585596	-0.950531	-0.573437
C40	C	1.451327	-1.060456	-0.438971
C41	C	1.451268	-0.950734	-0.438942
C42	C	1.384188	-1.115419	-0.371736
C43	C	1.317000	-1.060659	-0.304476
C44	C	1.316941	-0.950931	-0.304456
C45	C	1.384076	-0.895974	-0.371689
C46	C	1.792428	-0.506040	-0.506185
C47	C	1.909205	-0.506045	-0.506193
C48	C	1.518473	-0.505925	-0.780200
C49	C	1.518507	-0.505882	-0.896977
C50	C	1.518482	-0.231993	-0.506207
C51	C	1.518519	-0.115216	-0.506224
C52	C	1.585729	-0.438678	-0.951855
C53	C	1.585747	-0.438633	-1.061579
C54	C	1.451317	-0.573004	-1.061537
C55	C	1.451294	-0.573044	-0.951815
C56	C	1.623358	-0.314677	-1.211555
C57	C	1.690597	-0.247482	-1.266436
C58	C	1.793109	-0.231371	-1.230844
C59	C	1.828404	-0.282471	-1.140371
C60	C	1.761170	-0.349673	-1.085495
C61	C	1.658643	-0.365764	-1.121086
C62	C	1.413695	-0.697002	-0.801837
C63	C	1.346466	-0.764210	-0.746959
C64	C	1.243952	-0.780331	-0.782550
C65	C	1.208661	-0.729251	-0.873026
C66	C	1.275890	-0.662042	-0.927904
C67	C	1.378403	-0.645919	-0.892306
C68	C	1.518377	-0.506051	-0.233199
C69	C	1.518547	-0.505798	-0.116423
H70	H	0.819827	-0.371495	-0.372072
H71	H	1.384240	-1.204760	-0.371763
Br72	Br	1.383986	-0.747065	-0.371682
H73	H	1.125187	-0.742381	-0.902008
H74	H	1.375213	-0.805812	-0.673295
Br75	Br	0.889684	-0.799178	-0.798434
Br76	Br	1.676943	-0.347529	-0.877434
Br77	Br	0.889527	-0.212899	-0.213973
Br78	Br	1.809059	-0.419023	-0.962720
Br79	Br	1.811163	-1.134373	-0.799219
Br80	Br	0.760330	-0.640597	-0.640366
H81	H	1.262336	-1.105419	-0.249744
H82	H	1.118387	-0.249400	-0.250347
Br83	Br	1.552813	-0.675087	-0.753502
H84	H	1.652691	-0.806228	-0.640645
Br85	Br	1.152721	-0.871570	-0.708088
H86	H	1.911884	-0.269355	-1.111404
H87	H	1.247148	-0.620450	-1.001575
Br88	Br	1.360108	-0.664151	-1.135967
Br89	Br	1.148325	-0.799171	-0.798392
Br90	Br	1.277523	-0.371472	-0.372008
H91	H	1.774579	-0.905568	-0.762664
H92	H	1.652888	-1.204356	-0.640740
Br93	Br	1.884362	-0.140183	-1.305331
Br94	Br	1.225739	-0.876622	-0.213187
H95	H	1.661850	-0.205877	-1.340100
Br96	Br	1.484220	-0.336519	-1.259854
H97	H	1.218026	-0.640585	-0.640297
