data_functionalizedCrystal
_audit_creation_method	'MofGen! by Chris Wilmer'
_symmetry_space_group_name_H-M	'P1'
_symmetry_Int_Tables_number	1
_symmetry_cell_setting	triclinic
loop_
_symmetry_equiv_pos_as_xyz
  x,y,z
_cell_length_a	18.215407
_cell_length_b	18.215404
_cell_length_c	18.215399
_cell_angle_alpha	89.970747
_cell_angle_beta	90.014360
_cell_angle_gamma	89.979339
loop_
_atom_site_label
_atom_site_type_symbol
_atom_site_fract_x
_atom_site_fract_y
_atom_site_fract_z
Zn1	Zn	1.125059	0.293025	0.416073
Zn2	Zn	1.458392	0.626358	0.749406
Zn3	Zn	1.791725	0.959691	1.082740
Zn4	Zn	1.124977	0.416101	0.293009
Zn5	Zn	1.458310	0.749434	0.626343
Zn6	Zn	1.791644	1.082768	0.959676
Zn7	Zn	1.001998	0.293047	0.293026
Zn8	Zn	1.335331	0.626381	0.626359
Zn9	Zn	1.668664	0.959714	0.959692
Zn10	Zn	1.001961	0.416048	0.416039
Zn11	Zn	1.335294	0.749382	0.749373
Zn12	Zn	1.668627	1.082715	1.082706
O13	O	1.063498	0.354555	0.354537
O14	O	1.396832	0.687889	0.687870
O15	O	1.730165	1.021222	1.021204
O16	O	1.228032	0.309363	0.399756
O17	O	1.561365	0.642697	0.733089
O18	O	1.894699	0.976030	1.066422
O19	O	1.108645	0.399809	0.190027
O20	O	1.441978	0.733143	0.523360
O21	O	1.775312	1.066476	0.856694
O22	O	1.018372	0.190060	0.309369
O23	O	1.351705	0.523393	0.642703
O24	O	1.685038	0.856727	0.976036
O25	O	1.227972	0.399787	0.309341
O26	O	1.561305	0.733120	0.642674
O27	O	1.894639	1.066454	0.976008
O28	O	1.108784	0.190043	0.399772
O29	O	1.442117	0.523377	0.733105
O30	O	1.775451	0.856710	1.066438
O31	O	1.018292	0.309402	0.190039
O32	O	1.351626	0.642736	0.523373
O33	O	1.684959	0.976069	0.856706
O34	O	0.899008	0.309351	0.309337
O35	O	1.232342	0.642685	0.642670
O36	O	1.565675	0.976018	0.976003
O37	O	1.018308	0.399697	0.519028
O38	O	1.351642	0.733031	0.852362
O39	O	1.684975	1.066364	1.185695
O40	O	0.898981	0.399720	0.399714
O41	O	1.232315	0.733053	0.733048
O42	O	1.565648	1.066386	1.066381
O43	O	1.108748	0.309312	0.519053
O44	O	1.442081	0.642646	0.852386
O45	O	1.775415	0.975979	1.185720
O46	O	1.108609	0.519078	0.309308
O47	O	1.441942	0.852412	0.642642
O48	O	1.775276	1.185745	0.975975
O49	O	1.018229	0.519040	0.399698
O50	O	1.351563	0.852373	0.733031
O51	O	1.684896	1.185706	1.066365
C52	C	0.872292	0.354533	0.354524
C53	C	1.205626	0.687866	0.687857
C54	C	1.538959	1.021199	1.021191
C55	C	0.790493	0.354541	0.354536
C56	C	1.123827	0.687874	0.687869
C57	C	1.457160	1.021207	1.021203
C58	C	1.063426	0.545762	0.354514
C59	C	1.396760	0.879095	0.687847
C60	C	1.730093	1.212428	1.021181
C61	C	1.063463	0.627560	0.354529
C62	C	1.396796	0.960894	0.687862
C63	C	1.730129	1.294227	1.021195
C64	C	0.602330	0.307554	0.401689
C65	C	0.935663	0.640887	0.735022
C66	C	1.268996	0.974221	1.068356
C67	C	0.525471	0.307560	0.401692
C68	C	0.858804	0.640894	0.735025
C69	C	1.192137	0.974227	1.068358
C70	C	0.525419	0.401577	0.307398
C71	C	0.858753	0.734911	0.640731
C72	C	1.192086	1.068244	0.974064
C73	C	0.602277	0.401567	0.307392
C74	C	0.935610	0.734900	0.640725
C75	C	1.268943	1.068233	0.974059
C76	C	0.640730	0.354556	0.354542
C77	C	0.974063	0.687890	0.687875
C78	C	1.307397	1.021223	1.021209
C79	C	0.487014	0.354573	0.354550
C80	C	0.820347	0.687906	0.687883
C81	C	1.153680	1.021240	1.021217
C82	C	0.403680	0.354580	0.354552
C83	C	0.737013	0.687914	0.687886
C84	C	1.070347	1.021247	1.021219
C85	C	0.724069	0.354548	0.354539
C86	C	1.057402	0.687881	0.687872
C87	C	1.390735	1.021214	1.021205
C88	C	1.110664	0.892614	0.307574
C89	C	1.443997	1.225947	0.640907
C90	C	1.777331	1.559280	0.974241
C91	C	1.110633	0.815755	0.307554
C92	C	1.443966	1.149088	0.640887
C93	C	1.777300	1.482422	0.974220
C94	C	1.016434	0.815756	0.401595
C95	C	1.349768	1.149089	0.734928
C96	C	1.683101	1.482422	1.068261
C97	C	1.016462	0.892613	0.401611
C98	C	1.349796	1.225946	0.734944
C99	C	1.683129	1.559280	1.068277
C100	C	1.063581	0.931040	0.354601
C101	C	1.396915	1.264373	0.687935
C102	C	1.730248	1.597707	1.021268
C103	C	1.063522	0.777324	0.354565
C104	C	1.396856	1.110657	0.687898
C105	C	1.730189	1.443991	1.021232
C106	C	1.063488	0.693990	0.354543
C107	C	1.396822	1.027324	0.687877
C108	C	1.730155	1.360657	1.021210
C109	C	1.063615	1.014379	0.354622
C110	C	1.396948	1.347712	0.687955
C111	C	1.730281	1.681046	1.021289
C112	C	1.255451	0.354579	0.354550
C113	C	1.588785	0.687912	0.687884
C114	C	1.922118	1.021245	1.021217
C115	C	1.337250	0.354588	0.354556
C116	C	1.670584	0.687922	0.687889
C117	C	2.003917	1.021255	1.021223
C118	C	1.063533	0.354497	0.546490
C119	C	1.396867	0.687830	0.879823
C120	C	1.730200	1.021163	1.213157
C121	C	1.063548	0.354471	0.628289
C122	C	1.396881	0.687805	0.961622
C123	C	1.730215	1.021138	1.294955
C124	C	1.063594	1.162602	0.354587
C125	C	1.396927	1.495936	0.687921
C126	C	1.730260	1.829269	1.021254
C127	C	1.063641	1.080803	0.354638
C128	C	1.396974	1.414137	0.687971
C129	C	1.730308	1.747470	1.021304
C130	C	1.063506	0.354561	0.163331
C131	C	1.396840	0.687894	0.496664
C132	C	1.730173	1.021227	0.829997
C133	C	1.063634	0.354379	0.081532
C134	C	1.396967	0.687712	0.414865
C135	C	1.730301	1.021045	0.748199
C136	C	1.016541	0.307365	0.816490
C137	C	1.349875	0.640698	1.149823
C138	C	1.683208	0.974031	1.483157
C139	C	1.016554	0.307350	0.893349
C140	C	1.349887	0.640683	1.226682
C141	C	1.683221	0.974017	1.560016
C142	C	1.110643	0.401490	0.893325
C143	C	1.443976	0.734824	1.226659
C144	C	1.777309	1.068157	1.559992
C145	C	1.110626	0.401508	0.816468
C146	C	1.443959	0.734842	1.149801
C147	C	1.777292	1.068175	1.483135
C148	C	1.063576	0.354441	0.778052
C149	C	1.396909	0.687775	1.111386
C150	C	1.730243	1.021108	1.444719
C151	C	1.063606	0.354409	0.931769
C152	C	1.396939	0.687742	1.265102
C153	C	1.730273	1.021075	1.598435
C154	C	1.063620	0.354393	1.015102
C155	C	1.396953	0.687726	1.348436
C156	C	1.730287	1.021060	1.681769
C157	C	1.063561	0.354458	0.694713
C158	C	1.396894	0.687791	1.028047
C159	C	1.730227	1.021125	1.361380
H160	H	0.494209	0.269285	0.440082
H161	H	0.827542	0.602619	0.773416
H162	H	1.160875	0.935952	1.106749
H163	H	1.148949	0.439810	0.924613
H164	H	1.482283	0.773143	1.257946
H165	H	1.815616	1.106477	1.591280
C166	C	1.162484	0.934885	0.255860
C167	C	1.495817	1.268218	0.589194
C168	C	1.829150	1.601551	0.922527
H169	H	1.155763	0.986162	0.262608
H170	H	1.489096	1.319495	0.595941
H171	H	1.822429	1.652829	0.929274
H172	H	1.151741	0.922331	0.206402
H173	H	1.485074	1.255664	0.539735
H174	H	1.818408	1.588998	0.873069
H175	H	1.211922	0.922245	0.266677
H176	H	1.545255	1.255578	0.600010
H177	H	1.878588	1.588912	0.933344
H178	H	0.978119	0.923901	0.439907
H179	H	1.311452	1.257234	0.773241
H180	H	1.644786	1.590567	1.106574
H181	H	1.148929	0.439847	0.785171
H182	H	1.482262	0.773180	1.118505
H183	H	1.815596	1.106513	1.451838
H184	H	0.633543	0.439842	0.268995
H185	H	0.966876	0.773176	0.602328
H186	H	1.300210	1.106509	0.935662
H187	H	0.978253	0.269016	0.924641
H188	H	1.311586	0.602349	1.257975
H189	H	1.644920	0.935683	1.591308
C190	C	0.483119	0.453291	0.255544
C191	C	0.816452	0.786624	0.588877
C192	C	1.149785	1.119958	0.922210
H193	H	0.431845	0.446572	0.262304
H194	H	0.765178	0.779906	0.595638
H195	H	1.098512	1.113239	0.928971
H196	H	0.495699	0.442463	0.206114
H197	H	0.829032	0.775796	0.539447
H198	H	1.162366	1.109129	0.872780
H199	H	0.495709	0.502751	0.266235
H200	H	0.829042	0.836084	0.599569
H201	H	1.162376	1.169418	0.932902
H202	H	1.148971	0.784470	0.269259
H203	H	1.482304	1.117804	0.602592
H204	H	1.815638	1.451137	0.935925
C205	C	0.644626	0.255839	0.453546
C206	C	0.977959	0.589173	0.786879
C207	C	1.311292	0.922506	1.120212
H208	H	0.610745	0.227843	0.481620
H209	H	0.944079	0.561176	0.814953
H210	H	1.277412	0.894510	1.148287
H211	H	0.674613	0.284022	0.485562
H212	H	1.007946	0.617356	0.818895
H213	H	1.341279	0.950689	1.152229
H214	H	0.674604	0.223733	0.425441
H215	H	1.007938	0.557067	0.758774
H216	H	1.341271	0.890400	1.092108
C217	C	0.964615	0.773484	0.453307
C218	C	1.297948	1.106817	0.786641
C219	C	1.631282	1.440150	1.119974
H220	H	0.971346	0.722206	0.446569
H221	H	1.304680	1.055540	0.779902
H222	H	1.638013	1.388873	1.113236
H223	H	0.915179	0.786121	0.442496
H224	H	1.248513	1.119454	0.775829
H225	H	1.581846	1.452788	1.109162
H226	H	0.975363	0.786038	0.502769
H227	H	1.308696	1.119372	0.836102
H228	H	1.642029	1.452705	1.169435
H229	H	0.978230	0.269040	0.785214
H230	H	1.311564	0.602373	1.118548
H231	H	1.644897	0.935707	1.451881
