data_functionalizedCrystal
_audit_creation_method	'MofGen! by Chris Wilmer'
_symmetry_space_group_name_H-M	'P1'
_symmetry_Int_Tables_number	1
_symmetry_cell_setting	triclinic
loop_
_symmetry_equiv_pos_as_xyz
  x,y,z
_cell_length_a	14.971482
_cell_length_b	14.971486
_cell_length_c	9.730223
_cell_angle_alpha	89.995390
_cell_angle_beta	89.997266
_cell_angle_gamma	83.613368
loop_
_atom_site_label
_atom_site_type_symbol
_atom_site_fract_x
_atom_site_fract_y
_atom_site_fract_z
O1	O	1.186945	0.116547	-0.114273
O2	O	0.926545	0.130509	-0.114280
O3	O	1.063724	-0.006672	-0.114266
O4	O	1.049765	0.253728	-0.114286
O5	O	1.063716	-0.006676	0.114314
O6	O	0.926536	0.130505	0.114300
O7	O	1.186936	0.116543	0.114307
Zn8	Zn	1.056735	0.123523	0.150596
Zn9	Zn	1.056746	0.123528	-0.150568
O10	O	1.049757	0.253724	0.114294
C11	C	0.893215	0.129883	0.000010
C12	C	0.793918	0.128014	0.000007
C13	C	1.063096	-0.039999	0.000023
C14	C	1.061225	-0.139296	0.000022
C15	C	0.747269	0.127131	0.124608
C16	C	0.653970	0.125360	0.124609
C17	C	0.607322	0.124479	0.000009
C18	C	0.653978	0.125358	-0.124601
C19	C	0.747276	0.127123	-0.124601
C20	C	0.459517	0.121683	-0.124592
C21	C	0.366212	0.119920	-0.124592
C22	C	0.366211	0.119921	0.124619
C23	C	0.459508	0.121685	0.124619
C24	C	0.506158	0.122567	0.000008
C25	C	1.141814	-0.196522	0.000025
C26	C	1.140051	-0.289822	0.000011
C27	C	1.057698	-0.325893	0.000004
C28	C	0.977102	-0.268659	-0.000003
C29	C	0.978866	-0.175362	0.000001
C30	C	0.973431	-0.463122	-0.000008
C31	C	0.971667	-0.556426	-0.000010
C32	C	1.134616	-0.577582	0.000002
C33	C	1.136380	-0.484284	0.000006
C34	C	1.055784	-0.427057	0.000002
C35	C	1.220266	0.117168	0.000015
C36	C	1.319563	0.119038	0.000008
C37	C	1.050385	0.287051	0.000001
C38	C	1.052256	0.386348	-0.000007
N39	N	1.056733	0.123520	0.356132
N40	N	1.056755	0.123525	-0.356105
C41	C	1.117497	0.062801	0.428064
C42	C	1.117506	0.062801	0.571947
C43	C	0.995985	0.184246	0.571954
C44	C	0.995972	0.184241	0.428073
H45	H	0.785242	0.127857	0.226072
H46	H	1.166971	0.013357	0.369493
H47	H	0.615991	0.124634	-0.226053
H48	H	0.946487	0.233686	0.369502
H49	H	1.166984	0.013358	0.630510
H50	H	0.946515	0.233686	0.630542
H51	H	0.615994	0.124627	0.226072
F52	F	0.509152	0.122633	0.257232
H53	H	0.328224	0.119203	0.226081
H54	H	0.785257	0.127843	-0.226064
H55	H	0.497496	0.122401	-0.226063
F56	F	0.316568	0.118980	-0.257206
F57	F	0.893092	-0.114457	-0.000006
F58	F	0.887651	-0.402218	-0.000016
H59	H	0.910049	-0.298036	-0.000017
H60	H	0.904607	-0.585792	0.000007
H61	H	1.208876	-0.167161	0.000039
F62	F	1.225826	-0.350723	0.000017
H63	H	1.203439	-0.454919	0.000022
F64	F	1.220393	-0.638488	0.000001
