data_functionalizedCrystal
_audit_creation_method	'MofGen! by Chris Wilmer'
_symmetry_space_group_name_H-M	'P1'
_symmetry_Int_Tables_number	1
_symmetry_cell_setting	triclinic
loop_
_symmetry_equiv_pos_as_xyz
  x,y,z
_cell_length_a	10.654554
_cell_length_b	9.730223
_cell_length_c	10.654551
_cell_angle_alpha	89.998531
_cell_angle_beta	84.486053
_cell_angle_gamma	89.998863
loop_
_atom_site_label
_atom_site_type_symbol
_atom_site_fract_x
_atom_site_fract_y
_atom_site_fract_z
O1	O	1.667831	0.114238	0.176420
O2	O	1.302354	0.114249	0.193220
O3	O	1.493495	0.114244	0.002081
O4	O	1.476690	0.114243	0.367559
O5	O	1.493493	-0.114336	0.002086
O6	O	1.302351	-0.114331	0.193225
O7	O	1.667829	-0.114342	0.176425
Zn8	Zn	1.485090	-0.150628	0.184826
Zn9	Zn	1.485093	0.150535	0.184819
O10	O	1.476688	-0.114337	0.367564
C11	C	1.255555	-0.000039	0.191988
C12	C	1.116112	-0.000035	0.188294
N13	N	1.485097	-0.356165	0.184829
C14	C	0.905604	-0.000048	0.297367
C15	C	1.036625	-0.000037	0.300839
C16	C	1.064571	-0.000029	0.072269
C17	C	0.933552	-0.000030	0.068799
C18	C	0.826123	-0.000064	0.409919
C19	C	0.877654	-0.000066	0.525944
C20	C	1.008676	-0.000056	0.529416
C21	C	1.088166	-0.000042	0.416863
C22	C	1.569756	-0.428093	0.100222
C23	C	1.569753	-0.571976	0.100207
C24	C	1.400427	-0.571990	0.269417
C25	C	1.400425	-0.428109	0.269426
C26	C	1.654428	-0.356149	0.015626
C27	C	1.739095	-0.428077	-0.068988
C28	C	1.739092	-0.571960	-0.069003
C29	C	1.654421	-0.643915	0.015595
C30	C	1.714628	-0.000051	0.177657
C31	C	1.854071	-0.000046	0.181351
C32	C	1.492260	-0.000043	-0.044714
C33	C	1.488567	-0.000034	-0.184158
N34	N	1.485096	0.356072	0.184806
C35	C	1.486836	0.124563	-0.249672
C36	C	1.483356	0.124557	-0.380693
C37	C	1.483343	-0.124654	-0.380673
C38	C	1.486814	-0.124646	-0.249654
C39	C	1.486849	0.268443	-0.249685
C40	C	1.483369	0.268437	-0.380706
C41	C	1.477923	-0.000047	0.414360
C42	C	1.481616	-0.000047	0.553803
H43	H	0.812926	-0.000067	0.617580
H44	H	0.891594	-0.000027	-0.025671
C45	C	1.307280	-0.651130	0.362452
H46	H	1.256844	-0.587684	0.412830
H47	H	1.352885	-0.707278	0.415160
H48	H	1.254619	-0.707237	0.316748
C49	C	1.359636	0.328761	-0.420663
H50	H	1.306946	0.355639	-0.347795
H51	H	1.317677	0.261314	-0.465726
H52	H	1.377957	0.406567	-0.473108
H53	H	1.129301	-0.000020	-0.019365
C54	C	1.065359	-0.000056	0.657034
H55	H	0.999255	-0.000075	0.723564
H56	H	1.115885	0.079656	0.663146
H57	H	1.115890	-0.079776	0.663134
C58	C	1.232286	-0.000025	0.420684
H59	H	1.251596	-0.000032	0.505899
H60	H	1.267083	0.079685	0.379258
H61	H	1.267089	-0.079747	0.379267
C62	C	1.600616	0.343039	-0.443257
H63	H	1.598241	0.343043	-0.532165
H64	H	1.674517	0.297020	-0.422574
H65	H	1.601404	0.435093	-0.413634
H66	H	1.654441	-0.238992	0.015633
H67	H	1.808024	-0.369484	-0.137872
H68	H	0.719437	-0.000077	0.407105
C69	C	1.832217	-0.651078	-0.162073
H70	H	1.882646	-0.587619	-0.212444
H71	H	1.786596	-0.707199	-0.214785
H72	H	1.884886	-0.707211	-0.116398
C73	C	1.369613	0.343076	-0.187152
H74	H	1.371983	0.343090	-0.098244
H75	H	1.295705	0.297072	-0.207831
H76	H	1.368842	0.435127	-0.216790
H77	H	1.578448	0.313082	-0.220119
C78	C	1.481423	-0.261716	-0.452724
H79	H	1.479114	-0.243878	-0.540138
H80	H	1.408884	-0.312909	-0.422305
H81	H	1.555110	-0.312913	-0.440191
H82	H	1.654417	-0.761074	0.015567
H83	H	1.331487	-0.369545	0.338320
C84	C	1.488710	-0.261701	-0.177590
H85	H	1.487181	-0.335912	-0.235367
H86	H	1.416957	-0.266870	-0.117538
H87	H	1.563183	-0.266887	-0.135423
