data_functionalizedCrystal
_audit_creation_method	'MofGen! by Chris Wilmer'
_symmetry_space_group_name_H-M	'P1'
_symmetry_Int_Tables_number	1
_symmetry_cell_setting	triclinic
loop_
_symmetry_equiv_pos_as_xyz
  x,y,z
_cell_length_a	9.065218
_cell_length_b	10.489741
_cell_length_c	8.140239
_cell_angle_alpha	89.996756
_cell_angle_beta	89.997198
_cell_angle_gamma	84.777530
loop_
_atom_site_label
_atom_site_type_symbol
_atom_site_fract_x
_atom_site_fract_y
_atom_site_fract_z
O1	O	1.959494	0.187043	-0.136617
O2	O	1.530135	0.202385	-0.136619
O3	O	1.754585	0.009151	-0.136608
O4	O	1.735045	0.380276	-0.136628
O5	O	1.754572	0.009149	0.136619
O6	O	1.530123	0.202383	0.136608
O7	O	1.959482	0.187040	0.136610
Zn8	Zn	1.744800	0.194711	0.179990
Zn9	Zn	1.744817	0.194714	-0.179999
O10	O	1.735032	0.380274	0.136599
C11	C	1.475149	0.200909	-0.000006
C12	C	1.311328	0.196501	-0.000006
C13	C	1.753102	-0.038387	0.000004
C14	C	1.748687	-0.180032	0.000001
C15	C	1.605877	-0.248688	-0.000011
C16	C	1.673333	-0.340568	0.134704
C17	C	1.673379	-0.340540	-0.134676
C18	C	1.816202	-0.270047	0.134828
C19	C	1.816228	-0.270009	-0.134673
C20	C	1.883788	-0.361862	0.000075
C21	C	2.014467	0.188516	-0.000007
C22	C	2.178289	0.192925	-0.000017
C23	C	1.736514	0.427812	-0.000017
C24	C	1.740930	0.569458	-0.000025
N25	N	1.744800	0.194708	0.425672
N26	N	1.744829	0.194707	-0.425681
H27	H	1.612901	-0.371799	0.248596
H28	H	2.001312	-0.410861	0.000150
C29	C	1.449288	-0.183106	0.000497
C30	C	1.375194	-0.218664	0.141882
C31	C	1.230954	-0.158260	0.142426
H32	H	1.397865	-0.208206	-0.094123
H33	H	1.453131	-0.092901	-0.000390
H34	H	1.371343	-0.308849	0.142755
H35	H	1.426572	-0.193563	0.236526
H36	H	1.234798	-0.068056	0.141538
H37	H	1.179545	-0.183365	0.047799
H38	H	1.180668	-0.182368	0.238360
C39	C	1.896972	-0.228759	0.286728
C40	C	2.041982	-0.287507	0.286873
C41	C	2.116430	-0.249487	0.426764
H42	H	1.846755	-0.253467	0.382396
H43	H	1.899345	-0.138401	0.285837
H44	H	2.039602	-0.377845	0.287779
H45	H	2.092239	-0.262807	0.191237
H46	H	2.118803	-0.159129	0.425873
H47	H	2.066202	-0.274197	0.522421
H48	H	2.214831	-0.289332	0.426873
H49	H	1.876609	-0.238746	-0.248571
C50	C	1.592561	-0.381938	-0.286486
C51	C	1.447142	-0.324097	-0.285849
C52	C	1.372646	-0.362181	-0.425672
H53	H	1.590954	-0.472354	-0.286069
H54	H	1.642270	-0.356567	-0.382191
H55	H	1.397445	-0.349475	-0.190169
H56	H	1.448706	-0.233681	-0.286290
H57	H	1.422355	-0.336811	-0.521378
H58	H	1.371049	-0.452598	-0.425244
H59	H	1.273976	-0.322933	-0.425267
