data_functionalizedCrystal
_audit_creation_method	'MofGen! by Chris Wilmer'
_symmetry_space_group_name_H-M	'P1'
_symmetry_Int_Tables_number	1
_symmetry_cell_setting	triclinic
loop_
_symmetry_equiv_pos_as_xyz
  x,y,z
_cell_length_a	12.759401
_cell_length_b	11.169416
_cell_length_c	12.759393
_cell_angle_alpha	90.028061
_cell_angle_beta	90.020938
_cell_angle_gamma	90.011674
loop_
_atom_site_label
_atom_site_type_symbol
_atom_site_fract_x
_atom_site_fract_y
_atom_site_fract_z
Zn1	Zn	1.606300	-0.477700	0.594038
Zn2	Zn	2.106300	0.022300	1.094038
Zn3	Zn	1.606205	-0.678429	0.418365
Zn4	Zn	2.106205	-0.178429	0.918365
Zn5	Zn	1.430598	-0.477764	0.418373
Zn6	Zn	1.930598	0.022236	0.918373
Zn7	Zn	1.430604	-0.678345	0.594003
Zn8	Zn	1.930604	-0.178345	1.094003
O9	O	1.518427	-0.578060	0.506195
O10	O	2.018427	-0.078060	1.006195
O11	O	1.753308	-0.504336	0.570746
O12	O	2.253308	-0.004336	1.070746
O13	O	1.582868	-0.651872	0.271345
O14	O	2.082868	-0.151872	0.771345
O15	O	1.453943	-0.309806	0.441693
O16	O	1.953943	0.190194	0.941693
O17	O	1.753238	-0.651810	0.441680
O18	O	2.253238	-0.151810	0.941680
O19	O	1.583030	-0.309759	0.570753
O20	O	2.083030	0.190241	1.070753
O21	O	1.453851	-0.504445	0.271351
O22	O	1.953851	-0.004445	0.771351
O23	O	1.283578	-0.504363	0.441659
O24	O	1.783578	-0.004363	0.941659
O25	O	1.453953	-0.651667	0.741029
O26	O	1.953953	-0.151667	1.241029
O27	O	1.283582	-0.651729	0.570693
O28	O	1.783582	-0.151729	1.070693
O29	O	1.583035	-0.504254	0.741054
O30	O	2.083035	-0.004254	1.241054
O31	O	1.582874	-0.846368	0.441646
O32	O	2.082874	-0.346368	0.941646
O33	O	1.453861	-0.846306	0.570686
O34	O	1.953861	-0.346306	1.070686
C35	C	1.245459	-0.578045	0.506174
C36	C	1.745459	-0.078045	1.006174
C37	C	1.128683	-0.578068	0.506190
C38	C	1.628683	-0.078068	1.006190
C39	C	1.073850	-0.654918	0.573272
C40	C	1.573850	-0.154918	1.073272
C41	C	0.964126	-0.654923	0.573293
C42	C	1.464126	-0.154923	1.073293
C43	C	0.964076	-0.501223	0.439140
C44	C	1.464076	-0.001223	0.939140
C45	C	1.073798	-0.501213	0.439125
C46	C	1.573798	-0.001213	0.939125
C47	C	1.518386	-0.889884	0.506184
C48	C	2.018386	-0.389884	1.006184
C49	C	1.518465	-1.023284	0.506215
C50	C	2.018465	-0.523284	1.006215
C51	C	1.792460	-0.578075	0.506216
C52	C	2.292460	-0.078075	1.006216
C53	C	1.909237	-0.578082	0.506226
C54	C	2.409237	-0.078082	1.006226
C55	C	1.518505	-0.577944	0.780228
C56	C	2.018505	-0.077944	1.280228
C57	C	1.518539	-0.577895	0.897005
C58	C	2.018539	-0.077895	1.397005
C59	C	1.518496	-0.265017	0.506228
C60	C	2.018496	0.234983	1.006228
C61	C	1.518526	-0.131617	0.506242
C62	C	2.018526	0.368383	1.006242
C63	C	1.518409	-0.578088	0.233227
C64	C	2.018409	-0.078088	0.733227
C65	C	1.518579	-0.577799	0.116451
C66	C	2.018579	-0.077799	0.616451
C67	C	1.585757	-0.501125	0.951882
C68	C	2.085757	-0.001125	1.451882
C69	C	1.585775	-0.501073	1.061606
C70	C	2.085775	-0.001073	1.561606
C71	C	1.451353	-0.654573	1.061566
C72	C	1.951353	-0.154573	1.561566
C73	C	1.451331	-0.654617	0.951844
C74	C	1.951331	-0.154617	1.451844
H75	H	1.118534	-0.717495	0.627883
H76	H	1.618534	-0.217495	1.127883
H77	H	0.919487	-0.717500	0.627920
H78	H	1.419487	-0.217500	1.127920
H79	H	0.919376	-0.438653	0.384537
H80	H	1.419376	0.061347	0.884537
H81	H	1.640479	-0.438650	0.907235
H82	H	2.140479	0.061350	1.407235
H83	H	1.118444	-0.438625	0.384499
H84	H	1.618444	0.061375	0.884499
H85	H	1.640509	-0.438557	1.106282
H86	H	2.140509	0.061443	1.606282
H87	H	1.396637	-0.717039	1.106230
H88	H	1.896637	-0.217039	1.606230
H89	H	1.396586	-0.717132	0.907162
H90	H	1.896586	-0.217132	1.407162
