data_functionalizedCrystal
_audit_creation_method	'MofGen! by Chris Wilmer'
_symmetry_space_group_name_H-M	'P1'
_symmetry_Int_Tables_number	1
_symmetry_cell_setting	triclinic
loop_
_symmetry_equiv_pos_as_xyz
  x,y,z
_cell_length_a	14.519709
_cell_length_b	14.519709
_cell_length_c	13.448316
_cell_angle_alpha	90.007547
_cell_angle_beta	90.001142
_cell_angle_gamma	83.680145
loop_
_atom_site_label
_atom_site_type_symbol
_atom_site_fract_x
_atom_site_fract_y
_atom_site_fract_z
O1	O	1.223870	0.120893	0.082565
O2	O	0.955393	0.135130	0.082595
O3	O	1.096750	-0.006227	0.082570
O4	O	1.082514	0.262250	0.082590
O5	O	1.096732	-0.006236	-0.082814
O6	O	0.955376	0.135121	-0.082789
O7	O	1.223852	0.120885	-0.082819
Cu8	Cu	1.089612	0.128002	-0.097905
Cu9	Cu	1.089633	0.128012	0.097681
O10	O	1.082496	0.262241	-0.082794
C11	C	0.921025	0.134462	-0.000093
C12	C	0.818643	0.132474	-0.000081
C13	C	0.443748	0.125154	-0.000127
C14	C	0.548056	0.127187	-0.000114
C15	C	0.631192	0.128814	-0.000103
C16	C	0.735507	0.130847	-0.000092
C17	C	1.096078	-0.040591	-0.000122
C18	C	1.094090	-0.142972	-0.000122
C19	C	1.086770	-0.517868	-0.000096
C20	C	1.088803	-0.413560	-0.000103
C21	C	1.090430	-0.330423	-0.000110
C22	C	1.092463	-0.226109	-0.000116
C23	C	1.258221	0.121553	-0.000129
C24	C	1.360602	0.123541	-0.000134
C25	C	1.083168	0.296605	-0.000100
C26	C	1.085156	0.398987	-0.000093
N27	N	1.089604	0.127994	-0.235469
C28	C	1.152217	0.065427	-0.287521
C29	C	1.152222	0.065427	-0.391624
C30	C	1.089620	0.127998	-0.443674
C31	C	1.027001	0.190568	-0.391615
C32	C	1.026991	0.190563	-0.287514
C33	C	1.027026	0.190574	-0.608595
C34	C	1.027037	0.190580	-0.712704
C35	C	1.152257	0.065437	-0.712705
C36	C	1.152248	0.065433	-0.608604
C37	C	1.089630	0.128004	-0.556552
N38	N	1.089649	0.128013	0.235245
H39	H	1.203199	0.014478	-0.245148
H40	H	1.203243	0.014490	-0.755092
H41	H	1.203228	0.014487	-0.566225
H42	H	1.203205	0.014479	-0.434004
H43	H	0.976058	0.241531	-0.755077
H44	H	0.976033	0.241524	-0.566218
H45	H	0.976024	0.241512	-0.434000
H46	H	0.976005	0.241511	-0.245134
