data_functionalizedCrystal
_audit_creation_method	'MofGen! by Chris Wilmer'
_symmetry_space_group_name_H-M	'P1'
_symmetry_Int_Tables_number	1
_symmetry_cell_setting	triclinic
loop_
_symmetry_equiv_pos_as_xyz
  x,y,z
_cell_length_a	19.077105
_cell_length_b	16.959453
_cell_length_c	19.076919
_cell_angle_alpha	87.728832
_cell_angle_beta	89.923776
_cell_angle_gamma	87.716327
loop_
_atom_site_label
_atom_site_type_symbol
_atom_site_fract_x
_atom_site_fract_y
_atom_site_fract_z
Zn1	Zn	1.058297	-0.382398	0.440414
Zn2	Zn	1.391630	-0.049064	0.773748
Zn3	Zn	1.724964	0.284269	1.107081
Zn4	Zn	1.062946	-0.509489	0.322906
Zn5	Zn	1.396279	-0.176155	0.656240
Zn6	Zn	1.729612	0.157178	0.989573
Zn7	Zn	0.945514	-0.371809	0.318208
Zn8	Zn	1.278847	-0.038476	0.651541
Zn9	Zn	1.612181	0.294858	0.984874
Zn10	Zn	0.940767	-0.509012	0.435659
Zn11	Zn	1.274101	-0.175679	0.768992
Zn12	Zn	1.607434	0.157655	1.102325
O13	O	1.001881	-0.443177	0.379297
O14	O	1.335214	-0.109843	0.712630
O15	O	1.668548	0.223490	1.045963
O16	O	1.157246	-0.403887	0.428783
O17	O	1.490579	-0.070554	0.762116
O18	O	1.823912	0.262779	1.095450
O19	O	1.051300	-0.486993	0.223952
O20	O	1.384634	-0.153660	0.557285
O21	O	1.717967	0.179673	0.890618
O22	O	0.960516	-0.262606	0.334442
O23	O	1.293849	0.070728	0.667776
O24	O	1.627183	0.404061	1.001109
O25	O	1.160661	-0.497261	0.342450
O26	O	1.493995	-0.163927	0.675784
O27	O	1.827328	0.169406	1.009117
O28	O	1.043377	-0.270385	0.424227
O29	O	1.376710	0.062948	0.757560
O30	O	1.710044	0.396282	1.090894
O31	O	0.965024	-0.385841	0.220500
O32	O	1.298357	-0.052507	0.553833
O33	O	1.631690	0.280826	0.887166
O34	O	0.846552	-0.385378	0.329831
O35	O	1.179886	-0.052045	0.663165
O36	O	1.513219	0.281288	0.996498
O37	O	0.952426	-0.496448	0.534621
O38	O	1.285759	-0.163115	0.867954
O39	O	1.619093	0.170218	1.201287
O40	O	0.843065	-0.486181	0.416122
O41	O	1.176398	-0.152847	0.749455
O42	O	1.509732	0.180486	1.082789
O43	O	1.038774	-0.403425	0.538115
O44	O	1.372108	-0.070092	0.871448
O45	O	1.705441	0.263241	1.204781
O46	O	1.046698	-0.620033	0.337839
O47	O	1.380031	-0.286700	0.671173
O48	O	1.713364	0.046633	1.004506
O49	O	0.956934	-0.619683	0.420678
O50	O	1.290267	-0.286350	0.754011
O51	O	1.623600	0.046983	1.087345
C52	C	0.819312	-0.434579	0.371951
C53	C	1.152646	-0.101246	0.705285
C54	C	1.485979	0.232087	1.038618
C55	C	0.741208	-0.430921	0.368825
C56	C	1.074541	-0.097588	0.702159
C57	C	1.407874	0.235746	1.035492
C58	C	1.001824	-0.648539	0.379269
C59	C	1.335157	-0.315206	0.712602
C60	C	1.668490	0.018127	1.045935
C61	C	1.001862	-0.736398	0.379283
C62	C	1.335196	-0.403065	0.712616
C63	C	1.668529	-0.069732	1.045949
C64	C	0.702720	-0.481758	0.412213
C65	C	1.036053	-0.148425	0.745547
C66	C	1.369386	0.184909	1.078880
C67	C	0.629332	-0.478311	0.409280
C68	C	0.962666	-0.144977	0.742613
C69	C	1.295999	0.188356	1.075946
C70	C	0.594434	-0.424029	0.362954
C71	C	0.927768	-0.090696	0.696288
C72	C	1.261101	0.242637	1.029621
C73	C	0.632928	-0.373187	0.319565
C74	C	0.966261	-0.039854	0.652898
C75	C	1.299594	0.293480	0.986231
C76	C	0.706314	-0.376631	0.322502
C77	C	1.039647	-0.043298	0.655836
C78	C	1.372980	0.290035	0.989169
C79	C	0.375146	-0.408089	0.349362
C80	C	0.708479	-0.074755	0.682695
C81	C	1.041813	0.258578	1.016028
C82	C	0.301755	-0.404650	0.346426
C83	C	0.635088	-0.071316	0.679759
C84	C	0.968421	0.262017	1.013093
C85	C	0.298164	-0.509773	0.436142
C86	C	0.631498	-0.176440	0.769476
C87	C	0.964831	0.156894	1.102809
C88	C	0.371552	-0.513216	0.439073
C89	C	0.704885	-0.179882	0.772406
C90	C	1.038219	0.153451	1.105740
C91	C	0.410039	-0.462370	0.395686
C92	C	0.743372	-0.129037	0.729019
C93	C	1.076706	0.204296	1.062353
N94	N	0.519420	-0.420506	0.359953
N95	N	0.852754	-0.087172	0.693286
N96	N	1.186087	0.246161	1.026620
N97	N	0.485051	-0.465891	0.398691
N98	N	0.818384	-0.132557	0.732025
N99	N	1.151718	0.200776	1.065358
C100	C	1.045081	-1.111874	0.426135
C101	C	1.378414	-0.778541	0.759468
C102	C	1.711748	-0.445207	1.092801
C103	C	0.958873	-1.103890	0.332571
C104	C	1.292207	-0.770557	0.665904
C105	C	1.625540	-0.437224	0.999238
C106	C	0.958848	-1.021343	0.332554
C107	C	1.292181	-0.688009	0.665887
C108	C	1.625514	-0.354676	0.999220
C109	C	1.001939	-0.984057	0.379328
C110	C	1.335272	-0.650723	0.712662
C111	C	1.668606	-0.317390	1.045995
C112	C	1.045055	-1.029319	0.426120
C113	C	1.378389	-0.695985	0.759454
C114	C	1.711722	-0.362652	1.092787
C115	C	0.915727	-0.976074	0.285768
C116	C	1.249060	-0.642741	0.619101
C117	C	1.582394	-0.309408	0.952434
C118	C	0.915699	-0.893521	0.285749
C119	C	1.249033	-0.560188	0.619082
C120	C	1.582366	-0.226855	0.952416
C121	C	0.958795	-0.856234	0.332521
C122	C	1.292128	-0.522901	0.665854
C123	C	1.625461	-0.189567	0.999188
C124	C	1.001913	-0.901501	0.379314
C125	C	1.335247	-0.568168	0.712647
C126	C	1.668580	-0.234835	1.045981
C127	C	1.045004	-0.864215	0.426089
C128	C	1.378338	-0.530882	0.759422
C129	C	1.711671	-0.197549	1.092756
C130	C	1.088127	-0.909481	0.472879
C131	C	1.421461	-0.576148	0.806213
C132	C	1.754794	-0.242815	1.139546
C133	C	1.088151	-0.992031	0.472892
C134	C	1.421484	-0.658698	0.806226
C135	C	1.754817	-0.325365	1.139559
C136	C	0.958771	-0.773684	0.332508
C137	C	1.292105	-0.440351	0.665841
C138	C	1.625438	-0.107017	0.999175
C139	C	1.044979	-0.781660	0.426075
C140	C	1.378312	-0.448327	0.759408
C141	C	1.711645	-0.114993	1.092741
C142	C	1.185163	-0.451808	0.386671
C143	C	1.518496	-0.118475	0.720005
C144	C	1.851829	0.214858	1.053338
C145	C	1.263267	-0.455487	0.389814
C146	C	1.596600	-0.122153	0.723147
C147	C	1.929933	0.211180	1.056480
C148	C	0.994552	-0.451065	0.562577
C149	C	1.327886	-0.117731	0.895910
C150	C	1.661219	0.215602	1.229243
C151	C	0.991429	-0.454426	0.640680
C152	C	1.324762	-0.121093	0.974013
C153	C	1.658096	0.212241	1.307347
C154	C	1.001957	-0.237014	0.379341
C155	C	1.335291	0.096319	0.712674
C156	C	1.668624	0.429653	1.046008
C157	C	1.001990	-0.149160	0.379360
C158	C	1.335323	0.184174	0.712693
C159	C	1.668657	0.517507	1.046027
C160	C	1.009222	-0.435264	0.196731
C161	C	1.342555	-0.101931	0.530065
C162	C	1.675889	0.231402	0.863398
C163	C	1.012481	-0.431687	0.118634
C164	C	1.345815	-0.098354	0.451967
C165	C	1.679148	0.234980	0.785301
C166	C	1.034917	-0.407575	0.679193
C167	C	1.368250	-0.074242	1.012526
C168	C	1.701583	0.259091	1.345860
C169	C	1.031973	-0.410730	0.752579
C170	C	1.365307	-0.077397	1.085912
C171	C	1.698640	0.255936	1.419245
C172	C	0.985546	-0.460741	0.787450
C173	C	1.318879	-0.127407	1.120784
C174	C	1.652213	0.205926	1.454117
C175	C	0.942054	-0.507593	0.748932
C176	C	1.275387	-0.174260	1.082265
C177	C	1.608720	0.159074	1.415598
C178	C	0.944994	-0.504434	0.675547
C179	C	1.278327	-0.171100	1.008881
C180	C	1.611660	0.162233	1.342214
C181	C	0.971929	-0.475380	1.006731
C182	C	1.305262	-0.142046	1.340064
C183	C	1.638596	0.191287	1.673398
C184	C	0.968994	-0.478538	1.080121
C185	C	1.302327	-0.145204	1.413454
C186	C	1.635660	0.188129	1.746788
C187	C	1.058913	-0.381673	1.083763
C188	C	1.392246	-0.048340	1.417096
C189	C	1.725580	0.284993	1.750429
C190	C	1.061852	-0.378522	1.010377
C191	C	1.395185	-0.045188	1.343710
C192	C	1.728518	0.288145	1.677043
C193	C	1.018357	-0.425371	0.971865
C194	C	1.351690	-0.092038	1.305198
C195	C	1.685024	0.241296	1.638531
N196	N	0.982538	-0.463969	0.862462
N197	N	1.315871	-0.130635	1.195796
N198	N	1.649205	0.202698	1.529129
N199	N	1.021362	-0.422138	0.896854
N200	N	1.354695	-0.088805	1.230187
N201	N	1.688028	0.244528	1.563521
H202	H	0.731128	-0.525962	0.449934
H203	H	1.064462	-0.192629	0.783268
H204	H	1.397795	0.140704	1.116601
O205	O	0.912404	-1.144112	0.282125
O206	O	1.245737	-0.810779	0.615458
O207	O	1.579071	-0.477446	0.948792
H208	H	0.856757	-1.126239	0.291908
H209	H	1.190090	-0.792906	0.625241
H210	H	1.523424	-0.459573	0.958575
O211	O	1.078881	-0.360204	0.794121
O212	O	1.412215	-0.026871	1.127454
O213	O	1.745548	0.306463	1.460787
H214	H	1.111666	-0.324907	0.757544
H215	H	1.445000	0.008426	1.090877
H216	H	1.778333	0.341760	1.424211
H217	H	0.904249	-0.548310	0.777330
H218	H	1.237582	-0.214976	1.110663
H219	H	1.570916	0.118357	1.443997
O220	O	0.869264	-1.016286	0.235308
O221	O	1.202598	-0.682952	0.568641
O222	O	1.535931	-0.349619	0.901975
H223	H	0.876539	-1.081292	0.243169
H224	H	1.209872	-0.747959	0.576503
H225	H	1.543206	-0.414626	0.909836
H226	H	1.072725	-0.366854	0.650806
H227	H	1.406058	-0.033521	0.984139
H228	H	1.739392	0.299813	1.317473
O229	O	0.912264	-0.724866	0.282047
O230	O	1.245597	-0.391532	0.615380
O231	O	1.578931	-0.058199	0.948713
H232	H	0.919483	-0.661199	0.289895
H233	H	1.252816	-0.327865	0.623229
H234	H	1.586150	0.005468	0.956562
H235	H	0.266821	-0.551167	0.471467
H236	H	0.600154	-0.217834	0.804800
H237	H	0.933487	0.115500	1.138133
H238	H	0.880587	-0.856671	0.247649
H239	H	1.213921	-0.523338	0.580983
H240	H	1.547254	-0.190004	0.914316
O241	O	0.587893	-0.533219	0.456074
O242	O	0.921227	-0.199886	0.789407
O243	O	1.254560	0.133447	1.122741
H244	H	0.553032	-0.497964	0.490600
H245	H	0.886365	-0.164630	0.823933
H246	H	1.219699	0.168703	1.157267
H247	H	0.399961	-0.557419	0.476795
H248	H	0.733294	-0.224086	0.810128
H249	H	1.066628	0.109248	1.143461
O250	O	1.111930	-0.324586	0.972765
O251	O	1.445263	0.008748	1.306098
O252	O	1.778597	0.342081	1.639431
H253	H	1.141674	-0.292534	1.011875
H254	H	1.475007	0.040799	1.345208
H255	H	1.808341	0.374133	1.678541
O256	O	0.918907	-0.532475	1.117730
O257	O	1.252241	-0.199141	1.451063
O258	O	1.585574	0.134192	1.784396
H259	H	0.881840	-0.496845	1.149734
H260	H	1.215174	-0.163511	1.483068
H261	H	1.548507	0.169822	1.816401
O262	O	1.105803	-0.331120	1.125298
O263	O	1.439137	0.002213	1.458631
O264	O	1.772470	0.335547	1.791964
H265	H	1.095952	-0.341705	1.182185
H266	H	1.429285	-0.008371	1.515518
H267	H	1.762618	0.324962	1.848851
H268	H	0.936523	-0.513540	0.975384
H269	H	1.269856	-0.180207	1.308717
H270	H	1.603189	0.153127	1.642050
H271	H	0.273343	-0.360438	0.308706
H272	H	0.606676	-0.027105	0.642040
H273	H	0.940009	0.306228	0.975373
H274	H	0.909575	-0.542576	0.644190
H275	H	1.242908	-0.209243	0.977524
H276	H	1.576241	0.124091	1.310857
O277	O	1.091592	-1.160688	0.476600
O278	O	1.424926	-0.827354	0.809933
O279	O	1.758259	-0.494021	1.143267
H280	H	1.077288	-1.146626	0.531249
H281	H	1.410621	-0.813293	0.864582
H282	H	1.743954	-0.479959	1.197916
H283	H	0.406473	-0.366693	0.314028
H284	H	0.739807	-0.033359	0.647361
H285	H	1.073140	0.299974	0.980694
O286	O	0.595281	-0.314659	0.269587
O287	O	0.928615	0.018674	0.602920
O288	O	1.261948	0.352007	0.936253
H289	H	0.560589	-0.274291	0.299751
H290	H	0.893922	0.059042	0.633085
H291	H	1.227256	0.392376	0.966418
O292	O	0.747832	-0.321810	0.275698
O293	O	1.081165	0.011524	0.609031
O294	O	1.414498	0.344857	0.942365
H295	H	0.711238	-0.283493	0.242984
H296	H	1.044571	0.049841	0.576317
H297	H	1.377904	0.383174	0.909651
O298	O	1.091465	-0.741444	0.476517
O299	O	1.424798	-0.408111	0.809851
O300	O	1.758131	-0.074778	1.143184
H301	H	1.121452	-0.786790	0.509053
H302	H	1.454785	-0.453457	0.842386
H303	H	1.788118	-0.120124	1.175719
O304	O	1.134654	-1.040857	0.523357
O305	O	1.467987	-0.707523	0.856690
O306	O	1.801321	-0.374190	1.190023
H307	H	1.164620	-1.001064	0.555876
H308	H	1.497953	-0.667730	0.889209
H309	H	1.831287	-0.334397	1.222543
H310	H	1.123209	-0.879114	0.510967
H311	H	1.456543	-0.545780	0.844300
H312	H	1.789876	-0.212447	1.177633
