data_functionalizedCrystal
_audit_creation_method	'MofGen! by Chris Wilmer'
_symmetry_space_group_name_H-M	'P1'
_symmetry_Int_Tables_number	1
_symmetry_cell_setting	triclinic
loop_
_symmetry_equiv_pos_as_xyz
  x,y,z
_cell_length_a	6.817900
_cell_length_b	17.513362
_cell_length_c	17.110486
_cell_angle_alpha	95.939181
_cell_angle_beta	99.060439
_cell_angle_gamma	106.557224
loop_
_atom_site_label
_atom_site_type_symbol
_atom_site_fract_x
_atom_site_fract_y
_atom_site_fract_z
V1	V	-3.992678	-0.110089	-0.247447
O2	O	-3.964580	0.005535	-0.241987
O3	O	-3.960067	-0.218524	-0.246476
O4	O	-3.922278	-0.108289	-0.355038
O5	O	-4.002631	-0.105463	-0.132673
V6	V	-4.477111	-0.096272	-0.233632
O7	O	-4.251941	-0.140399	-0.277753
O8	O	-4.668046	-0.065963	-0.203326
O9	O	-4.286516	0.012162	-0.234603
O10	O	-4.622607	-0.211896	-0.239092
O11	O	-4.584556	-0.100898	-0.348406
O12	O	-4.324305	-0.098073	-0.126040
C13	C	-3.809621	-0.244961	-0.242758
C14	C	-3.864098	-0.333607	-0.242681
C15	C	-3.707801	-0.371197	-0.238669
C16	C	-3.758995	-0.454488	-0.238587
C17	C	-3.966491	-0.500188	-0.242523
C18	C	-4.122797	-0.462592	-0.246534
C19	C	-4.071599	-0.379301	-0.246610
C20	C	-4.130174	-0.751873	-0.242487
C21	C	-4.181363	-0.835169	-0.242413
C22	C	-3.817556	-0.827060	-0.234465
C23	C	-3.766376	-0.743769	-0.234546
C24	C	-3.922684	-0.706179	-0.238552
C25	C	-4.018826	-0.585325	-0.242442
C26	C	-3.870346	-0.621043	-0.238628
C27	C	-3.761416	-0.104344	-0.381240
C28	C	-3.785244	-0.103590	-0.469201
C29	C	-3.978305	-0.107215	-0.514583
C30	C	-4.000682	-0.106505	-0.597231
C31	C	-3.829999	-0.102176	-0.634497
C32	C	-3.636921	-0.098548	-0.589109
C33	C	-3.614543	-0.099252	-0.506461
C34	C	-3.888464	-0.099846	-0.883837
C35	C	-3.910860	-0.099145	-0.966491
C36	C	-4.274619	-0.107101	-0.974607
C37	C	-4.252226	-0.107809	-0.891958
C38	C	-4.059149	-0.104177	-0.846577
C39	C	-3.852869	-0.101453	-0.718978
C40	C	-4.036278	-0.104894	-0.762097
C41	C	-4.100305	0.038595	-0.238318
C42	C	-4.025066	0.127240	-0.238400
C43	C	-4.148510	-0.102020	-0.099835
C44	C	-4.103920	-0.102770	-0.011873
H45	H	-4.117301	-0.110745	-0.484248
O46	O	-3.426958	-0.095597	-0.462316
C47	C	-3.144675	-0.022418	-0.353060
C48	C	-3.357086	-0.026450	-0.403002
H49	H	-3.088140	0.033474	-0.305082
H50	H	-3.026397	-0.019153	-0.393842
H51	H	-3.162312	-0.078631	-0.323248
H52	H	-3.339651	0.029750	-0.432821
H53	H	-3.475285	-0.029755	-0.362182
H54	H	-4.391218	-0.111334	-0.861622
O55	O	-4.188196	-0.110132	-0.641411
C56	C	-4.470634	-0.183368	-0.750591
C57	C	-4.258249	-0.179352	-0.700638
H58	H	-4.527357	-0.239337	-0.798477
H59	H	-4.453153	-0.127218	-0.780500
H60	H	-4.588702	-0.186547	-0.709731
H61	H	-4.140070	-0.176199	-0.741444
H62	H	-4.275899	-0.235501	-0.670720
H63	H	-4.431815	-0.110057	-1.011566
O64	O	-3.687161	-0.097150	-0.755256
C65	C	-3.455297	-0.022325	-0.832631
C66	C	-3.643004	-0.027112	-0.791593
H67	H	-3.419510	0.034304	-0.862006
H68	H	-3.493805	-0.077813	-0.880214
H69	H	-3.313507	-0.019900	-0.785997
H70	H	-3.784873	-0.029512	-0.838168
H71	H	-3.604321	0.028375	-0.743995
O72	O	-3.506155	-0.326820	-0.234702
C73	C	-3.153655	-0.283692	-0.159005
C74	C	-3.381950	-0.333963	-0.163392
H75	H	-3.053163	-0.289464	-0.101364
H76	H	-3.143758	-0.217685	-0.159696
H77	H	-3.095009	-0.306759	-0.212748
H78	H	-3.440740	-0.310967	-0.109661
H79	H	-3.391714	-0.399963	-0.162740
H80	H	-3.597414	-0.706565	-0.231338
H81	H	-3.690304	-0.857674	-0.231202
O82	O	-4.220503	-0.629650	-0.246383
C83	C	-4.572955	-0.672870	-0.322132
C84	C	-4.344646	-0.622624	-0.317762
H85	H	-4.673382	-0.667220	-0.379845
H86	H	-4.631845	-0.649796	-0.268460
H87	H	-4.582625	-0.738844	-0.321347
H88	H	-4.334797	-0.556639	-0.318572
H89	H	-4.285856	-0.645765	-0.371431
H90	H	-4.350335	-0.872376	-0.245618
H91	H	-4.257460	-0.721279	-0.245756
H92	H	-4.175243	-0.108416	-0.731751
H93	H	-4.291746	-0.499806	-0.249735
H94	H	-3.631713	-0.485089	-0.235308
H95	H	-3.701401	-0.583830	-0.235419
O96	O	-3.745131	-0.094830	-1.002768
C97	C	-3.513286	-0.020002	-1.080147
C98	C	-3.701001	-0.024797	-1.039112
H99	H	-3.477521	0.036624	-1.109528
H100	H	-3.551773	-0.075492	-1.127726
H101	H	-3.371490	-0.017565	-1.033511
H102	H	-3.842876	-0.027208	-1.085689
H103	H	-3.662339	0.030692	-0.991518
O104	O	-4.223288	-0.342711	-0.250612
C105	C	-4.402598	-0.264178	-0.324273
C106	C	-4.230708	-0.305562	-0.319834
H107	H	-4.408683	-0.234147	-0.380243
H108	H	-4.366827	-0.216650	-0.268852
H109	H	-4.559654	-0.311157	-0.327034
H110	H	-4.073584	-0.258643	-0.317099
H111	H	-4.266659	-0.353106	-0.375254
H112	H	-3.731271	-0.096917	-0.846901
O113	O	-3.471200	-0.094237	-0.625381
C114	C	-3.239311	-0.019411	-0.702747
C115	C	-3.427040	-0.024202	-0.661722
H116	H	-3.203523	0.037216	-0.732125
H117	H	-3.277795	-0.074901	-0.750327
H118	H	-3.097531	-0.016980	-0.656106
H119	H	-3.568900	-0.026608	-0.708304
H120	H	-3.388382	0.031286	-0.614127
