data_functionalizedCrystal
_audit_creation_method	'MofGen! by Chris Wilmer'
_symmetry_space_group_name_H-M	'P1'
_symmetry_Int_Tables_number	1
_symmetry_cell_setting	triclinic
loop_
_symmetry_equiv_pos_as_xyz
  x,y,z
_cell_length_a	29.839132
_cell_length_b	12.759401
_cell_length_c	12.759386
_cell_angle_alpha	90.040388
_cell_angle_beta	90.072463
_cell_angle_gamma	90.045425
loop_
_atom_site_label
_atom_site_type_symbol
_atom_site_fract_x
_atom_site_fract_y
_atom_site_fract_z
Zn1	Zn	0.178681	-1.606259	-0.593920
Zn2	Zn	0.253862	-1.605993	-0.418213
Zn3	Zn	0.178747	-1.430494	-0.418259
Zn4	Zn	0.253785	-1.430456	-0.593855
O5	O	0.216269	-1.518301	-0.506062
O6	O	0.188659	-1.753245	-0.570620
O7	O	0.243958	-1.582617	-0.271198
O8	O	0.115871	-1.453937	-0.441607
O9	O	0.243894	-1.753049	-0.441529
O10	O	0.115823	-1.583071	-0.570664
O11	O	0.188771	-1.453679	-0.271232
O12	O	0.188697	-1.283468	-0.441544
O13	O	0.243763	-1.453873	-0.740885
O14	O	0.243827	-1.283440	-0.570554
O15	O	0.188584	-1.583035	-0.740932
O16	O	0.316719	-1.582580	-0.441467
O17	O	0.316663	-1.453614	-0.570510
C18	C	0.332992	-1.518093	-0.505999
C19	C	0.382926	-1.518100	-0.506007
C20	C	0.216261	-1.245333	-0.506048
C21	C	0.216268	-1.128557	-0.506066
C22	C	0.216158	-1.518479	-0.780096
C23	C	0.216110	-1.518555	-0.896873
C24	C	0.692586	-1.585501	-0.438924
C25	C	0.880259	-1.585601	-0.438948
O26	O	0.904538	-1.642795	-0.381893
N27	N	0.903711	-1.518411	-0.506079
C28	C	0.880242	-1.451195	-0.573213
O29	O	0.904495	-1.394056	-0.630321
C30	C	0.692570	-1.451101	-0.573194
C31	C	0.669120	-1.518288	-0.506051
C32	C	0.669137	-1.652683	-0.371788
C33	C	0.622221	-1.652653	-0.371778
C34	C	0.598755	-1.585441	-0.438905
C35	C	0.622205	-1.518259	-0.506042
C36	C	0.669101	-1.383892	-0.640333
C37	C	0.622180	-1.383876	-0.640324
C38	C	0.598731	-1.451064	-0.573182
C39	C	0.551823	-1.451017	-0.573160
N40	N	0.528372	-1.518207	-0.506029
C41	C	0.551838	-1.585419	-0.438902
C42	C	0.978772	-1.451248	-0.573217
C43	C	1.025690	-1.451270	-0.573221
C44	C	1.025705	-1.585677	-0.438957
C45	C	0.978786	-1.585649	-0.438948
C46	C	0.955321	-1.518438	-0.506086
C47	C	0.453312	-1.585351	-0.438887
C48	C	0.406392	-1.585312	-0.438880
C49	C	0.406382	-1.450909	-0.573148
C50	C	0.453298	-1.450944	-0.573151
C51	C	0.476761	-1.518173	-0.506017
O52	O	0.527515	-1.393861	-0.630194
O53	O	0.527576	-1.642567	-0.381820
C54	C	0.739502	-1.585530	-0.438933
C55	C	0.762951	-1.518348	-0.506070
C56	C	0.739485	-1.451136	-0.573197
C57	C	0.809869	-1.518370	-0.506074
C58	C	0.833335	-1.585582	-0.438946
C59	C	0.809883	-1.652773	-0.371815
C60	C	0.762968	-1.652743	-0.371806
C61	C	0.762937	-1.383946	-0.640328
C62	C	0.809853	-1.383980	-0.640331
C63	C	0.833319	-1.451192	-0.573204
C64	C	1.099091	-1.518499	-0.506125
C65	C	1.049156	-1.518483	-0.506094
C66	C	0.216278	-1.792334	-0.506077
C67	C	0.216281	-1.909111	-0.506083
C68	C	0.245020	-1.073708	-0.573131
C69	C	0.245026	-0.963984	-0.573142
C70	C	0.187526	-0.963967	-0.439016
C71	C	0.187518	-1.073689	-0.439011
C72	C	0.273770	-1.128575	-0.640186
C73	C	0.302525	-1.073726	-0.707255
C74	C	0.302531	-0.964002	-0.707267
C75	C	0.273782	-0.909127	-0.640209
C76	C	0.216348	-1.518183	-0.233094
C77	C	0.216269	-1.518311	-0.116318
C78	C	0.244751	-1.585992	-0.061386
C79	C	0.244673	-1.586112	0.048338
C80	C	0.187627	-1.450867	0.048188
C81	C	0.187708	-1.450742	-0.061534
C82	C	0.273312	-1.653561	-0.116170
C83	C	0.301796	-1.721249	-0.061238
C84	C	0.301718	-1.721369	0.048486
C85	C	0.273156	-1.653801	0.103277
H86	H	0.387301	-1.640024	-0.384201
O87	O	0.329435	-1.786963	0.101895
C88	C	0.358584	-1.727660	0.165691
H89	H	0.361639	-1.644920	0.132797
H90	H	0.393037	-1.766182	0.167101
H91	H	0.344646	-1.723925	0.248759
H92	H	0.164514	-1.395633	-0.106260
H93	H	0.164373	-1.395858	0.092808
H94	H	0.472410	-1.640098	-0.384222
H95	H	0.273785	-0.819782	-0.640233
H96	H	0.603132	-1.707366	-0.317108
O97	O	0.599456	-1.318489	-0.705581
C98	C	0.630218	-1.259223	-0.764859
H99	H	0.663688	-1.255608	-0.721822
H100	H	0.616694	-1.176436	-0.776006
H101	H	0.635148	-1.297698	-0.844680
H102	H	0.743835	-1.329214	-0.694993
H103	H	0.828997	-1.707496	-0.317155
O104	O	0.955932	-1.385898	-0.638287
C105	C	0.928864	-1.318017	-0.578411
H106	H	0.921859	-1.355084	-0.498827
H107	H	0.895856	-1.303901	-0.621196
H108	H	0.946989	-1.240175	-0.566791
O109	O	0.832559	-1.318674	-0.705657
C110	C	0.801780	-1.259333	-0.764881
H111	H	0.768315	-1.302349	-0.768534
H112	H	0.815289	-1.248128	-0.847657
H113	H	0.796850	-1.179540	-0.726344
H114	H	0.273100	-1.653892	0.192622
H115	H	1.044779	-1.396550	-0.627886
O116	O	0.740262	-1.718113	-0.306554
C117	C	0.771042	-1.777415	-0.247298
H118	H	0.804459	-1.781053	-0.290348
H119	H	0.757462	-1.860192	-0.236159
H120	H	0.776096	-1.738957	-0.167473
H121	H	0.273770	-1.217918	-0.640183
H122	H	0.325941	-0.919346	-0.761885
O123	O	0.691858	-1.718010	-0.306473
C124	C	0.661091	-1.777312	-0.247245
H125	H	0.627668	-1.734254	-0.243587
H126	H	0.674680	-1.788535	-0.164471
H127	H	0.656045	-1.857098	-0.285783
O128	O	0.330387	-1.127142	-0.772446
C129	C	0.304823	-1.190684	-0.840428
H130	H	0.270767	-1.207146	-0.803522
H131	H	0.323122	-1.267823	-0.854420
H132	H	0.299910	-1.148468	-0.918312
O133	O	0.956078	-1.651017	-0.373697
C134	C	0.986857	-1.710316	-0.314431
H135	H	1.020275	-1.713957	-0.357475
H136	H	0.973276	-1.793092	-0.303289
H137	H	0.991908	-1.671853	-0.234608
O138	O	0.159579	-1.126814	-0.373757
C139	C	0.134202	-1.054862	-0.314580
H140	H	0.152605	-0.976614	-0.310870
H141	H	0.129391	-1.086510	-0.231821
H142	H	0.100091	-1.043279	-0.353196
H143	H	1.044819	-1.640405	-0.384299
O144	O	0.159669	-0.910620	-0.373758
C145	C	0.185236	-0.847050	-0.305810
H146	H	0.220615	-0.880062	-0.299172
H147	H	0.168969	-0.845771	-0.225025
H148	H	0.186798	-0.763914	-0.338287
O149	O	0.476010	-1.385643	-0.638467
C150	C	0.445234	-1.326292	-0.697691
H151	H	0.411767	-1.369299	-0.701347
H152	H	0.458744	-1.315088	-0.780466
H153	H	0.440307	-1.246499	-0.659151
H154	H	0.387269	-1.396183	-0.627799
O155	O	0.273386	-1.653638	-0.222755
C156	C	0.261550	-1.754105	-0.259673
H157	H	0.268992	-1.814806	-0.196501
H158	H	0.281807	-1.773007	-0.332975
H159	H	0.224282	-1.755744	-0.279397
O160	O	0.329518	-1.787024	-0.114342
C161	C	0.319350	-1.891616	-0.087805
H162	H	0.302016	-1.893619	-0.008262
H163	H	0.351624	-1.939217	-0.083913
H164	H	0.296188	-1.926589	-0.149780
H165	H	0.688186	-1.329176	-0.695003
