data_functionalizedCrystal
_audit_creation_method	'MofGen! by Chris Wilmer'
_symmetry_space_group_name_H-M	'P1'
_symmetry_Int_Tables_number	1
_symmetry_cell_setting	triclinic
loop_
_symmetry_equiv_pos_as_xyz
  x,y,z
_cell_length_a	16.625548
_cell_length_b	12.594516
_cell_length_c	12.594509
_cell_angle_alpha	89.973801
_cell_angle_beta	89.979004
_cell_angle_gamma	90.017121
loop_
_atom_site_label
_atom_site_type_symbol
_atom_site_fract_x
_atom_site_fract_y
_atom_site_fract_z
Zn1	Zn	1.232720	-0.423680	-0.601866
Zn2	Zn	1.232637	-0.601690	-0.423893
Zn3	Zn	1.097881	-0.423729	-0.423896
Zn4	Zn	1.097867	-0.601620	-0.601825
O5	O	1.165276	-0.512680	-0.512870
O6	O	1.345541	-0.447302	-0.578274
O7	O	1.214732	-0.578133	-0.274948
O8	O	1.115808	-0.274777	-0.447522
O9	O	1.345480	-0.578085	-0.447518
O10	O	1.214873	-0.274740	-0.578276
O11	O	1.115727	-0.447386	-0.274949
O12	O	0.985046	-0.447318	-0.447482
O13	O	1.115785	-0.577966	-0.750776
O14	O	0.985037	-0.578014	-0.578205
O15	O	1.214860	-0.447234	-0.750806
O16	O	1.214719	-0.750626	-0.447478
O17	O	1.115704	-0.750575	-0.578203
C18	C	0.955785	-0.512664	-0.512840
C19	C	0.866164	-0.512684	-0.512853
C20	C	0.537989	-0.512691	-0.512898
C21	C	0.629297	-0.512686	-0.512882
C22	C	0.702073	-0.512688	-0.512874
C23	C	0.793388	-0.512682	-0.512860
C24	C	1.165223	-0.789221	-0.512859
C25	C	1.165274	-0.907526	-0.512891
C26	C	1.111415	-0.976790	-0.583942
C27	C	1.091769	-1.047656	-0.486819
C28	C	1.184994	-1.047459	-0.610030
C29	C	1.145590	-0.976834	-0.415716
C30	C	1.238848	-0.976631	-0.538993
C31	C	1.219231	-1.047465	-0.441803
C32	C	1.375585	-0.512696	-0.512900
C33	C	1.465206	-0.512703	-0.512913
C34	C	1.165330	-0.512586	-0.790491
C35	C	1.165353	-0.512547	-0.908796
C36	C	1.165351	-0.235059	-0.512904
C37	C	1.165383	-0.116753	-0.512918
C38	C	1.111483	-0.583611	-0.978033
C39	C	1.185056	-0.609616	-1.048824
C40	C	1.091838	-0.486478	-1.048805
C41	C	1.238964	-0.538602	-0.978029
C42	C	1.145697	-0.415419	-0.978004
C43	C	1.219321	-0.441387	-1.048762
C44	C	1.165269	-0.512696	-0.236329
C45	C	1.165402	-0.512436	-0.118024
H46	H	1.065786	-0.945756	-0.643940
H47	H	1.065962	-0.643802	-0.946978
H48	H	1.128884	-0.945939	-0.333555
H49	H	1.264824	-1.078301	-0.381659
H50	H	1.201707	-0.691707	-1.079932
H51	H	1.301174	-0.560698	-0.947070
C52	C	1.280963	-0.360142	-1.090465
C53	C	1.272759	-0.242026	-1.060839
C54	C	1.334405	-0.160791	-1.102544
C55	C	1.404256	-0.197671	-1.173875
C56	C	1.412463	-0.315792	-1.203504
C57	C	1.350817	-0.397028	-1.161799
H58	H	1.221049	-0.214721	-1.008033
H59	H	1.328330	-0.073349	-1.080610
H60	H	1.449891	-0.137535	-1.204748
H61	H	1.464173	-0.343098	-1.256311
H62	H	1.356892	-0.484469	-1.183733
C63	C	1.322815	-0.934447	-0.568846
C64	C	1.369814	-0.864496	-0.490096
C65	C	1.453782	-0.822311	-0.519963
C66	C	1.490750	-0.850077	-0.628581
C67	C	1.443751	-0.920032	-0.707338
C68	C	1.359783	-0.962217	-0.677471
H69	H	1.342448	-0.843939	-0.409684
H70	H	1.488573	-0.770526	-0.461661
H71	H	1.552908	-0.818849	-0.650690
H72	H	1.471117	-0.940589	-0.787750
H73	H	1.324992	-1.014002	-0.735773
C74	C	1.007824	-0.456741	-1.090802
C75	C	0.938990	-0.433463	-1.012355
C76	C	0.854975	-0.403735	-1.054348
C77	C	0.839794	-0.397284	-1.174787
C78	C	0.908630	-0.420562	-1.253241
C79	C	0.992645	-0.450291	-1.211249
H80	H	0.950226	-0.438238	-0.923192
H81	H	0.804018	-0.386502	-0.996270
H82	H	0.777601	-0.375277	-1.205872
H83	H	0.897394	-0.415787	-1.342404
H84	H	1.043602	-0.467523	-1.269326
C85	C	1.123174	-0.304554	-0.935934
C86	C	1.040948	-0.255692	-0.963800
C87	C	1.018415	-0.144827	-0.921728
C88	C	1.078108	-0.082824	-0.851789
C89	C	1.160339	-0.131686	-0.823920
C90	C	1.182873	-0.242551	-0.865992
H91	H	0.996755	-0.301590	-1.015576
H92	H	0.957541	-0.108656	-0.942359
H93	H	1.061427	-0.000755	-0.820645
H94	H	1.204532	-0.085787	-0.772144
H95	H	1.243746	-0.278721	-0.845361
H96	H	1.029600	-1.078876	-0.464764
H97	H	1.201628	-1.078483	-0.692169
