data_functionalizedCrystal
_audit_creation_method	'MofGen! by Chris Wilmer'
_symmetry_space_group_name_H-M	'P1'
_symmetry_Int_Tables_number	1
_symmetry_cell_setting	triclinic
loop_
_symmetry_equiv_pos_as_xyz
  x,y,z
_cell_length_a	15.944493
_cell_length_b	13.596369
_cell_length_c	15.944545
_cell_angle_alpha	89.991909
_cell_angle_beta	96.514392
_cell_angle_gamma	90.004761
loop_
_atom_site_label
_atom_site_type_symbol
_atom_site_fract_x
_atom_site_fract_y
_atom_site_fract_z
O1	O	1.114553	0.081783	-0.108102
O2	O	0.869996	0.081788	-0.121509
O3	O	0.998956	0.081774	0.007471
O4	O	0.985594	0.081798	-0.237082
O5	O	0.998943	-0.081809	0.007478
O6	O	0.869983	-0.081794	-0.121502
O7	O	1.114540	-0.081800	-0.108095
Zn8	Zn	0.992260	-0.107770	-0.114798
Zn9	Zn	0.992277	0.107758	-0.114806
O10	O	0.985581	-0.081785	-0.237075
C11	C	0.838695	-0.000002	-0.120958
C12	C	0.745447	-0.000001	-0.119315
C13	C	0.509685	0.000007	-0.195235
C14	C	0.459121	-0.080656	-0.154291
C15	C	0.574726	-0.000003	-0.116271
C16	C	0.459138	0.080624	-0.154279
C17	C	0.409816	-0.000001	-0.113336
C18	C	0.525390	-0.080733	-0.075348
C19	C	0.525411	0.080620	-0.075347
C20	C	0.474880	-0.000063	-0.034345
C21	C	0.669725	-0.000005	-0.117963
C22	C	0.314819	-0.000006	-0.111637
C23	C	0.998395	-0.000019	0.038768
C24	C	0.996735	-0.000021	0.132014
C25	C	1.145841	-0.000007	-0.108646
C26	C	1.239090	-0.000002	-0.110289
N27	N	0.992254	-0.254861	-0.114791
C28	C	0.992276	-0.656152	-0.114807
C29	C	0.992267	-0.544501	-0.114806
C30	C	0.992265	-0.455510	-0.114800
C31	C	0.992256	-0.343852	-0.114797
N32	N	0.992289	0.254850	-0.114806
C33	C	0.986141	0.000009	-0.268373
C34	C	0.987801	0.000018	-0.361618
C35	C	0.911839	0.000001	0.402630
C36	C	0.952776	0.080655	0.352049
C37	C	0.990814	0.000007	0.467657
C38	C	0.952784	-0.080625	0.352083
C39	C	0.993719	-0.000009	0.302744
C40	C	1.031730	0.080728	0.418305
C41	C	1.031727	-0.080624	0.418342
C42	C	1.072721	0.000050	0.367795
C43	C	0.989139	0.000017	0.562659
C44	C	0.995401	-0.000011	0.207745
H45	H	0.459415	-0.000116	0.033726
O46	O	0.559900	-0.162144	-0.035650
C47	C	0.648066	-0.161170	-0.037716
H48	H	0.664049	-0.113364	-0.092459
H49	H	0.671328	-0.239369	-0.046517
H50	H	0.680114	-0.129990	0.024154
H51	H	0.430178	-0.148843	-0.187636
O52	O	0.560109	0.161890	-0.035596
C53	C	0.648344	0.160274	-0.037087
H54	H	0.670042	0.081341	-0.045407
H55	H	0.680651	0.191067	0.024819
H56	H	0.665689	0.207107	-0.091874
O57	O	0.830691	0.000269	0.421258
C58	C	0.789353	0.085459	0.387317
H59	H	0.838129	0.144598	0.377995
H60	H	0.744353	0.113611	0.432573
H61	H	0.752149	0.067057	0.323939
O62	O	1.071631	0.162098	0.452645
C63	C	1.156158	0.162297	0.434548
H64	H	1.176342	0.083947	0.421173
H65	H	1.198498	0.192810	0.490976
H66	H	1.161985	0.210295	0.376862
O67	O	0.913104	-0.162079	0.317644
C68	C	0.953991	-0.246978	0.352751
H69	H	1.021781	-0.228034	0.378178
H70	H	0.954135	-0.306055	0.302038
H71	H	0.919119	-0.275496	0.406423
O72	O	0.424720	0.161952	-0.194192
C73	C	0.442078	0.161642	-0.278952
H74	H	0.500146	0.114417	-0.285058
H75	H	0.454462	0.240083	-0.299616
H76	H	0.385664	0.130179	-0.320719
O77	O	0.912915	0.161896	0.317400
C78	C	0.844621	0.132936	0.258608
H79	H	0.856047	0.055221	0.235599
H80	H	0.838728	0.185689	0.202669
H81	H	0.783865	0.134481	0.290014
O82	O	1.153874	0.000058	0.349181
C83	C	1.154557	-0.000722	0.260836
H84	H	1.092408	-0.032153	0.229687
H85	H	1.209105	-0.048216	0.243915
H86	H	1.162711	0.077570	0.237469
O87	O	0.528296	-0.000248	-0.276390
C88	C	0.494354	-0.085435	-0.317725
H89	H	0.485051	-0.144582	-0.268948
H90	H	0.539602	-0.113576	-0.362738
H91	H	0.430967	-0.067033	-0.354913
H92	H	1.065045	-0.148816	0.447302
