data_functionalizedCrystal
_audit_creation_method	'MofGen! by Chris Wilmer'
_symmetry_space_group_name_H-M	'P1'
_symmetry_Int_Tables_number	1
_symmetry_cell_setting	triclinic
loop_
_symmetry_equiv_pos_as_xyz
  x,y,z
_cell_length_a	10.540539
_cell_length_b	8.965430
_cell_length_c	10.540539
_cell_angle_alpha	89.998602
_cell_angle_beta	84.525492
_cell_angle_gamma	89.995055
loop_
_atom_site_label
_atom_site_type_symbol
_atom_site_fract_x
_atom_site_fract_y
_atom_site_fract_z
O1	O	1.685874	0.123961	0.178894
O2	O	1.316461	0.123979	0.195750
O3	O	1.509596	0.123968	0.002616
O4	O	1.492740	0.123972	0.372029
O5	O	1.509605	-0.124111	0.002622
O6	O	1.316470	-0.124100	0.195756
O7	O	1.685883	-0.124118	0.178900
Cu8	Cu	1.501178	-0.146760	0.187329
Cu9	Cu	1.501167	0.146622	0.187322
O10	O	1.492749	-0.124106	0.372035
C11	C	1.269163	-0.000058	0.194489
C12	C	1.128215	-0.000051	0.190707
C13	C	0.944788	-0.000632	0.045790
C14	C	1.091406	-0.000057	0.049624
C15	C	1.066537	0.141609	0.258599
C16	C	0.919992	0.141713	0.253784
C17	C	0.919514	-0.140399	0.256661
C18	C	1.066496	-0.142256	0.257961
N19	N	1.501195	-0.353109	0.187333
C20	C	1.590542	-0.450380	0.098021
C21	C	1.475605	-0.549780	0.072324
C22	C	1.616086	-0.549838	0.212948
C23	C	1.386199	-0.450320	0.161579
C24	C	1.526757	-0.450369	0.302253
C25	C	1.411737	-0.549723	0.276604
C26	C	1.733182	-0.000077	0.180161
C27	C	1.874130	-0.000074	0.183943
C28	C	1.508336	-0.000069	-0.044684
C29	C	1.504554	-0.000061	-0.185632
N30	N	1.501160	0.352971	0.187307
C31	C	1.359637	0.000503	-0.369059
C32	C	1.363471	-0.000055	-0.222441
C33	C	1.572455	-0.141729	-0.247286
C34	C	1.567640	-0.141848	-0.393831
C35	C	1.570499	0.140264	-0.394356
C36	C	1.571799	0.142137	-0.247374
C37	C	1.494008	-0.000066	0.419335
C38	C	1.497790	-0.000065	0.560283
H39	H	0.916206	-0.102225	-0.009943
H40	H	0.872023	0.148144	0.355249
N41	N	1.700826	0.152869	-0.216960
N42	N	1.745525	0.055449	-0.148989
H43	H	1.836654	0.063022	-0.127502
N44	N	1.096934	-0.153067	0.386977
N45	N	1.055588	-0.259911	0.455031
H46	H	1.077112	-0.267562	0.546143
H47	H	1.669106	-0.148280	-0.441799
H48	H	1.672403	0.141212	-0.441582
N49	N	1.290045	-0.126252	-0.406943
N50	N	1.329746	-0.254927	-0.387849
H51	H	1.280607	-0.344457	-0.414608
H52	H	1.134024	-0.101606	-0.003796
N53	N	1.289701	0.127927	-0.404967
N54	N	1.188746	0.110998	-0.456623
H55	H	1.139353	0.200995	-0.481994
H56	H	1.310043	0.101498	-0.179840
N57	N	0.860266	-0.141583	0.384495
N58	N	0.784928	-0.039639	0.422031
H59	H	0.743078	-0.040463	0.512310
H60	H	1.713263	-0.593551	0.234624
N61	N	1.685235	-0.395672	0.003217
N62	N	1.679051	-0.427562	-0.111472
H63	H	1.745923	-0.388926	-0.178431
N64	N	1.513300	-0.274000	-0.193882
N65	N	1.553753	-0.399293	-0.230678
H66	H	1.511968	-0.492709	-0.192964
H67	H	1.676063	-0.147001	-0.224932
N68	N	1.513238	0.274973	-0.433958
N69	N	1.506909	0.299972	-0.549850
H70	H	1.466460	0.395105	-0.577822
H71	H	1.109121	0.247035	0.211432
N72	N	1.094556	0.148225	0.388580
N73	N	1.059568	0.044996	0.463614
H74	H	1.079357	0.049665	0.555414
N75	N	0.879937	-0.275111	0.199406
N76	N	0.764049	-0.300124	0.193077
H77	H	0.736095	-0.395258	0.152631
N78	N	1.504662	-0.274665	-0.429209
N79	N	1.404938	-0.265856	-0.484135
H80	H	1.360453	-0.359659	-0.509115
H81	H	1.288999	-0.406790	0.139793
H82	H	1.453960	-0.593448	-0.024871
H83	H	1.309676	-0.101773	-0.180682
H84	H	1.548437	-0.406669	0.399419
N85	N	1.509544	0.273606	-0.196022
N86	N	1.415999	0.262734	-0.114252
H87	H	1.372028	0.355582	-0.077977
H88	H	0.914577	0.100394	-0.009712
N89	N	1.316821	-0.604097	0.371337
N90	N	1.202198	-0.571886	0.365123
H91	H	1.135159	-0.610291	0.432022
N92	N	1.117853	-0.273716	0.195696
N93	N	1.105065	-0.294846	0.080393
H94	H	1.141343	-0.387682	0.036405
H95	H	1.133148	0.101665	-0.004178
H96	H	0.891778	0.247604	0.203601
