data_functionalizedCrystal
_audit_creation_method	'MofGen! by Chris Wilmer'
_symmetry_space_group_name_H-M	'P1'
_symmetry_Int_Tables_number	1
_symmetry_cell_setting	triclinic
loop_
_symmetry_equiv_pos_as_xyz
  x,y,z
_cell_length_a	12.996460
_cell_length_b	10.723024
_cell_length_c	10.723024
_cell_angle_alpha	84.467869
_cell_angle_beta	89.995038
_cell_angle_gamma	89.994735
loop_
_atom_site_label
_atom_site_type_symbol
_atom_site_fract_x
_atom_site_fract_y
_atom_site_fract_z
O1	O	0.085557	-1.657190	-0.175030
O2	O	0.085561	-1.294038	-0.191783
O3	O	0.085555	-1.483991	-0.001830
O4	O	0.085563	-1.467237	-0.364982
O5	O	-0.085579	-1.483971	-0.001819
O6	O	-0.085573	-1.294018	-0.191772
O7	O	-0.085576	-1.657170	-0.175019
Cu8	Cu	-0.101201	-1.475592	-0.183395
Cu9	Cu	0.101185	-1.475616	-0.183407
O10	O	-0.085571	-1.467217	-0.364972
C11	C	-0.000006	-1.247528	-0.190558
C12	C	-0.000005	-1.108974	-0.186911
N13	N	-0.243548	-1.475585	-0.183385
C14	C	-0.000011	-1.482762	0.044675
C15	C	-0.000007	-1.479114	0.183229
C16	C	-0.663362	-1.475614	-0.183408
C17	C	-0.546557	-1.475602	-0.183406
C18	C	-0.453459	-1.475600	-0.183398
C19	C	-0.336646	-1.475587	-0.183393
N20	N	0.243532	-1.475633	-0.183407
C21	C	-0.000008	-1.703680	-0.176243
C22	C	-0.000002	-1.842234	-0.179891
C23	C	-0.000002	-1.033991	-0.293198
C24	C	-0.000000	-0.890788	-0.289431
C25	C	-0.000003	-1.468447	-0.411477
C26	C	0.000000	-1.472094	-0.550031
C27	C	-0.000006	-1.585401	0.258212
C28	C	-0.000003	-1.581634	0.401415
H29	H	-0.000006	-1.075814	-0.386984
O30	O	0.000129	-1.697216	0.208181
C31	C	0.088818	-1.832743	0.077189
C32	C	0.088780	-1.706056	0.133738
H33	H	0.160495	-1.839943	0.017011
H34	H	0.017247	-1.839956	0.016843
H35	H	0.088768	-1.912165	0.155935
H36	H	0.088866	-1.626561	0.055074
H37	H	0.160344	-1.698952	0.194117
H38	H	0.000001	-1.385328	0.225051
O39	O	0.000183	-1.363565	0.373067
C40	C	0.088809	-1.235865	0.209742
C41	C	0.088742	-1.358805	0.296793
H42	H	0.160391	-1.231988	0.148034
H43	H	0.088880	-1.152757	0.268518
H44	H	0.017155	-1.231874	0.148168
H45	H	0.160383	-1.362918	0.358383
H46	H	0.088618	-1.441855	0.237943
O47	O	0.000186	-0.813982	-0.398023
C48	C	0.088819	-0.750216	-0.591073
C49	C	0.088748	-0.837252	-0.468124
H50	H	0.160403	-0.769017	-0.647796
H51	H	0.088887	-0.648393	-0.568768
H52	H	0.017168	-0.768865	-0.647719
H53	H	0.160387	-0.818716	-0.411418
H54	H	0.088626	-0.939046	-0.490517
H55	H	0.000002	-0.906659	-0.088896
H56	H	0.000020	-1.067152	-0.093125
H57	H	-0.000007	-1.672624	0.465848
