data_functionalizedCrystal
_audit_creation_method	'MofGen! by Chris Wilmer'
_symmetry_space_group_name_H-M	'P1'
_symmetry_Int_Tables_number	1
_symmetry_cell_setting	triclinic
loop_
_symmetry_equiv_pos_as_xyz
  x,y,z
_cell_length_a	17.077404
_cell_length_b	12.645330
_cell_length_c	17.077396
_cell_angle_alpha	89.975096
_cell_angle_beta	89.982756
_cell_angle_gamma	90.017917
loop_
_atom_site_label
_atom_site_type_symbol
_atom_site_fract_x
_atom_site_fract_y
_atom_site_fract_z
Zn1	Zn	1.200065	-0.422024	-0.443867
Zn2	Zn	1.700065	0.077976	0.056133
Zn3	Zn	1.199990	-0.599312	-0.312611
Zn4	Zn	1.699990	-0.099312	0.187389
Zn5	Zn	1.068802	-0.422064	-0.312615
Zn6	Zn	1.568802	0.077936	0.187385
Zn7	Zn	1.068777	-0.599247	-0.443834
Zn8	Zn	1.568777	-0.099247	0.056166
O9	O	1.134409	-0.510662	-0.378232
O10	O	1.634409	-0.010662	0.121768
O11	O	1.309902	-0.445553	-0.426467
O12	O	1.809902	0.054447	0.073533
O13	O	1.182566	-0.575844	-0.202764
O14	O	1.682566	-0.075844	0.297236
O15	O	1.086257	-0.273711	-0.330041
O16	O	1.586257	0.226289	0.169959
O17	O	1.309847	-0.575805	-0.330034
O18	O	1.809847	-0.075805	0.169966
O19	O	1.182695	-0.273682	-0.426471
O20	O	1.682695	0.226318	0.073529
O21	O	1.086184	-0.445620	-0.202767
O22	O	1.586184	0.054380	0.297233
O23	O	0.958952	-0.445557	-0.330009
O24	O	1.458952	0.054443	0.169991
O25	O	1.086214	-0.575694	-0.553686
O26	O	1.586214	-0.075694	-0.053686
O27	O	0.958934	-0.575732	-0.426416
O28	O	1.458934	-0.075732	0.073584
O29	O	1.182671	-0.445489	-0.553709
O30	O	1.682671	0.054511	-0.053709
O31	O	1.182542	-0.747651	-0.330003
O32	O	1.682542	-0.247651	0.169997
O33	O	1.086140	-0.747603	-0.426412
O34	O	1.586140	-0.247603	0.073588
C35	C	0.930461	-0.510643	-0.378210
C36	C	1.430461	-0.010643	0.121790
C37	C	0.843211	-0.510660	-0.378219
C38	C	1.343211	-0.010660	0.121781
C39	C	0.802232	-0.578545	-0.428338
C40	C	1.302232	-0.078545	0.071662
C41	C	0.720251	-0.578547	-0.428350
C42	C	1.220251	-0.078547	0.071650
C43	C	0.679252	-0.510669	-0.378240
C44	C	1.179252	-0.010669	0.121760
C45	C	0.720237	-0.442777	-0.328119
C46	C	1.220237	0.057223	0.171881
C47	C	0.802216	-0.442770	-0.328111
C48	C	1.302216	0.057230	0.171889
C49	C	0.549367	-0.442798	-0.328138
C50	C	1.049367	0.057202	0.171862
C51	C	0.467382	-0.442806	-0.328145
C52	C	0.967382	0.057194	0.171855
C53	C	0.467402	-0.578575	-0.428377
C54	C	0.967402	-0.078575	0.071623
C55	C	0.549381	-0.578568	-0.428369
C56	C	1.049381	-0.078568	0.071631
C57	C	0.590361	-0.510677	-0.378247
C58	C	1.090361	-0.010677	0.121753
C59	C	1.134351	-0.786092	-0.378221
C60	C	1.634351	-0.286092	0.121779
C61	C	1.134399	-0.903922	-0.378242
C62	C	1.634399	-0.403922	0.121758
C63	C	1.074003	-1.071499	-0.439080
C64	C	1.574003	-0.571499	0.060920
C65	C	1.073694	-0.948940	-0.438885
C66	C	1.573694	-0.448940	0.061115
C67	C	1.112010	-0.948516	-0.295515
C68	C	1.612010	-0.448516	0.204485
C69	C	1.111642	-1.071114	-0.295885
C70	C	1.611642	-0.571114	0.204115
C71	C	1.217553	-1.071010	-0.399460
C72	C	1.717553	-0.571010	0.100540
C73	C	1.217043	-0.948404	-0.401269
C74	C	1.717043	-0.448404	0.098731
C75	C	1.339153	-0.510682	-0.378254
C76	C	1.839153	-0.010682	0.121746
C77	C	1.426403	-0.510690	-0.378263
C78	C	1.926403	-0.010690	0.121737
C79	C	1.134448	-0.510580	-0.582976
C80	C	1.634448	-0.010580	-0.082976
C81	C	1.134465	-0.510545	-0.670226
C82	C	1.634465	-0.010545	-0.170226
C83	C	1.134488	-0.234157	-0.378260
C84	C	1.634488	0.265843	0.121740
C85	C	1.134521	-0.116327	-0.378272
C86	C	1.634521	0.383673	0.121728
C87	C	1.084294	-0.442729	-0.711217
C88	C	1.584294	0.057271	-0.211217
C89	C	1.084307	-0.442705	-0.793197
C90	C	1.584307	0.057295	-0.293197
C91	C	1.134495	-0.510492	-0.834185
C92	C	1.634495	-0.010492	-0.334185
C93	C	1.184668	-0.578315	-0.793189
C94	C	1.684668	-0.078315	-0.293189
C95	C	1.184651	-0.578344	-0.711210
C96	C	1.684651	-0.078344	-0.211210
C97	C	1.184702	-0.578249	-0.964059
C98	C	1.684702	-0.078249	-0.464059
C99	C	1.184721	-0.578219	-1.046043
C100	C	1.684721	-0.078219	-0.546043
C101	C	1.084358	-0.442610	-1.046047
C102	C	1.584358	0.057390	-0.546047
C103	C	1.084341	-0.442639	-0.964068
C104	C	1.584341	0.057361	-0.464068
C105	C	1.134515	-0.510461	-0.923076
C106	C	1.634515	-0.010461	-0.423076
C107	C	1.134415	-0.510667	-0.174284
C108	C	1.634415	-0.010667	0.325716
C109	C	1.134550	-0.510404	-0.087034
C110	C	1.634550	-0.010404	0.412966
H111	H	0.686890	-0.633826	-0.469161
H112	H	1.186890	-0.133826	0.030839
O113	O	0.992971	-1.112413	-0.420719
O114	O	1.492971	-0.612413	0.079281
H115	H	0.992946	-1.200091	-0.423749
H116	H	1.492946	-0.700091	0.076251
H117	H	1.153808	-1.100771	-0.249033
H118	H	1.653808	-0.600771	0.250967
H119	H	0.582729	-0.387504	-0.287331
H120	H	1.082729	0.112496	0.212669
O121	O	1.030191	-0.369567	-0.837413
O122	O	1.530191	0.130433	-0.337413
H123	H	1.065346	-0.315634	-0.874783
H124	H	1.565346	0.184366	-0.374783
H125	H	1.043476	-0.387436	-0.930697
H126	H	1.543476	0.112564	-0.430697
O127	O	0.992161	-0.910197	-0.420288
O128	O	1.492161	-0.410197	0.079712
H129	H	0.993716	-0.861689	-0.366158
H130	H	1.493716	-0.361689	0.133842
O131	O	1.238846	-0.651342	-1.090252
O132	O	1.738846	-0.151342	-0.590252
H133	H	1.278812	-0.603889	-1.127606
H134	H	1.778812	-0.103889	-0.627606
O135	O	0.593604	-0.651779	-0.482416
O136	O	1.093604	-0.151779	0.017584
H137	H	0.630982	-0.604391	-0.522401
H138	H	1.130982	-0.104391	-0.022401
H139	H	1.225529	-0.633514	-0.826568
H140	H	1.725529	-0.133514	-0.326568
O141	O	1.030234	-0.369462	-1.090251
O142	O	1.530234	0.130538	-0.590251
H143	H	1.038668	-0.380837	-1.154142
H144	H	1.538668	0.119163	-0.654142
H145	H	1.225567	-0.633467	-0.930686
H146	H	1.725567	-0.133467	-0.430686
H147	H	0.434033	-0.633851	-0.469191
H148	H	0.934033	-0.133851	0.030809
H149	H	0.686848	-0.387505	-0.287322
H150	H	1.186848	0.112495	0.212678
H151	H	1.154692	-0.919357	-0.248970
H152	H	1.654692	-0.419357	0.251030
O153	O	0.846446	-0.651741	-0.482402
O154	O	1.346446	-0.151741	0.017598
H155	H	0.910336	-0.640335	-0.473979
H156	H	1.410336	-0.140335	0.026021
H157	H	1.050945	-1.099806	-0.277936
H158	H	1.550945	-0.599806	0.222064
O159	O	1.238771	-0.651476	-0.666991
O160	O	1.738771	-0.151476	-0.166991
H161	H	1.273681	-0.698599	-0.709264
H162	H	1.773681	-0.198599	-0.209264
H163	H	1.233927	-0.919253	-0.462152
H164	H	1.733927	-0.419253	0.037848
O165	O	0.423178	-0.369604	-0.274076
O166	O	0.923178	0.130396	0.225924
H167	H	0.385824	-0.417004	-0.234075
H168	H	0.885824	0.082996	0.265925
O169	O	1.032449	-0.907979	-0.271302
O170	O	1.532449	-0.407979	0.228698
H171	H	0.988002	-0.933869	-0.314660
H172	H	1.488002	-0.433869	0.185340
O173	O	0.846421	-0.369565	-0.274047
O174	O	1.346421	0.130435	0.225953
H175	H	0.804141	-0.322376	-0.239195
H176	H	1.304141	0.177624	0.260805
H177	H	1.087701	-0.918786	-0.500226
H178	H	1.587701	-0.418786	-0.000226
H179	H	1.087881	-1.100911	-0.500623
H180	H	1.587881	-0.600911	-0.000623
H181	H	1.264506	-0.917753	-0.360204
H182	H	1.764506	-0.417753	0.139796
O183	O	1.244610	-1.111848	-0.478012
O184	O	1.744610	-0.611848	0.021988
H185	H	1.199174	-1.164906	-0.502830
H186	H	1.699174	-0.664906	-0.002830
H187	H	1.043429	-0.387523	-0.677850
H188	H	1.543429	0.112477	-0.177850
O189	O	1.277322	-1.109643	-0.340927
O190	O	1.777322	-0.609643	0.159073
H191	H	1.248079	-1.160840	-0.296939
H192	H	1.748079	-0.660840	0.203061
