data_functionalizedCrystal
_audit_creation_method	'MofGen! by Chris Wilmer'
_symmetry_space_group_name_H-M	'P1'
_symmetry_Int_Tables_number	1
_symmetry_cell_setting	triclinic
loop_
_symmetry_equiv_pos_as_xyz
  x,y,z
_cell_length_a	16.625548
_cell_length_b	17.640280
_cell_length_c	17.639306
_cell_angle_alpha	92.178650
_cell_angle_beta	78.775108
_cell_angle_gamma	101.198651
loop_
_atom_site_label
_atom_site_type_symbol
_atom_site_fract_x
_atom_site_fract_y
_atom_site_fract_z
Zn1	Zn	1.388903	0.389103	-0.368341
Zn2	Zn	1.378267	0.490428	-0.215712
Zn3	Zn	1.222604	0.363463	-0.241361
Zn4	Zn	1.274947	0.516048	-0.342667
O5	O	1.316180	0.439761	-0.292020
O6	O	1.500328	0.402553	-0.348105
O7	O	1.331261	0.452133	-0.112841
O8	O	1.227210	0.260602	-0.279684
O9	O	1.492514	0.476996	-0.235969
O10	O	1.349389	0.279440	-0.372976
O11	O	1.216896	0.358852	-0.131686
O12	O	1.116711	0.383695	-0.254789
O13	O	1.316420	0.520661	-0.452345
O14	O	1.155167	0.495799	-0.329218
O15	O	1.400143	0.427396	-0.471208
O16	O	1.382015	0.600089	-0.211073
O17	O	1.306107	0.618912	-0.304347
C18	C	1.348613	0.637056	-0.252157
C19	C	1.362567	0.721465	-0.235129
C20	C	1.106682	0.439745	-0.292001
C21	C	1.017065	0.439761	-0.292007
C22	C	1.365307	0.479746	-0.490103
C23	C	1.386241	0.496786	-0.574514
C24	C	0.688899	0.439772	-0.292039
C25	C	0.780204	0.439767	-0.292028
C26	C	0.852979	0.439767	-0.292022
C27	C	0.944290	0.439761	-0.292013
C28	C	1.526496	0.439776	-0.292040
C29	C	1.616120	0.439783	-0.292048
C30	C	1.283647	0.241698	-0.332055
C31	C	1.269783	0.157296	-0.349116
C32	C	1.210566	1.048156	-0.421656
C33	C	1.223674	1.127466	-0.405632
C34	C	1.302806	1.107820	-0.308604
C35	C	1.289708	1.028508	-0.324623
C36	C	1.243586	0.998682	-0.381150
C37	C	1.322728	0.979033	-0.284117
C38	C	1.309627	0.899727	-0.300132
C39	C	1.263506	0.869894	-0.356654
C40	C	1.230485	0.919375	-0.397165
C41	C	1.368845	1.008860	-0.227587
C42	C	1.401865	0.959385	-0.187080
C43	C	1.388770	0.880078	-0.203099
C44	C	1.342648	0.850246	-0.259621
C45	C	1.421790	0.830597	-0.162588
C46	C	1.408689	0.751290	-0.178603
C47	C	1.329547	0.770939	-0.275636
C48	C	1.157407	0.310030	-0.901204
C49	C	1.177099	0.326057	-0.980518
C50	C	1.296175	0.423180	-0.960877
C51	C	1.276495	0.407158	-0.881561
C52	C	1.207110	0.350583	-0.851731
C53	C	1.326197	0.447711	-0.832087
C54	C	1.306516	0.431693	-0.752777
C55	C	1.237133	0.375122	-0.722941
C56	C	1.187428	0.334565	-0.772421
C57	C	1.395579	0.504290	-0.861918
C58	C	1.445281	0.544843	-0.812445
C59	C	1.425604	0.528822	-0.733134
C60	C	1.356220	0.472251	-0.703297
C61	C	1.475308	0.569379	-0.683654
C62	C	1.455627	0.553361	-0.604344
C63	C	1.336539	0.456233	-0.623987
C64	C	1.267282	0.399875	-0.094719
C65	C	1.246468	0.382622	-0.010352
H66	H	1.291997	0.746656	-0.321671
C67	C	1.187951	1.181172	-0.449752
C68	C	1.220906	1.177040	-0.528806
C69	C	1.188026	1.226510	-0.569469
H70	H	1.128878	1.166019	-0.441301
H71	H	1.202380	1.232693	-0.432169
H72	H	1.206471	1.125530	-0.546384
H73	H	1.279976	1.192199	-0.537281
H74	H	1.202456	1.278032	-0.551886
H75	H	1.128954	1.211353	-0.561011
H76	H	1.210387	1.223719	-0.623110
C77	C	1.451800	0.991698	-0.125590
C78	C	1.412475	0.957269	-0.054325
C79	C	1.458447	0.987019	0.002340
H80	H	1.506589	0.980924	-0.139280
H81	H	1.454858	1.046013	-0.121792
H82	H	1.409427	0.902966	-0.058124
H83	H	1.357691	0.968041	-0.040610
H84	H	1.461505	1.041333	0.006138
H85	H	1.513234	0.976242	-0.011358
H86	H	1.431768	0.963668	0.050701
C87	C	1.550723	0.630687	-0.716112
C88	C	1.606649	0.596891	-0.770330
C89	C	1.676135	0.653343	-0.800238
H90	H	1.533097	0.670047	-0.740415
H91	H	1.577558	0.652537	-0.675315
H92	H	1.579818	0.575053	-0.811121
H93	H	1.624298	0.557537	-0.746045
H94	H	1.702970	0.675194	-0.759440
H95	H	1.658501	0.692700	-0.824537
H96	H	1.714093	0.630420	-0.837022
H97	H	1.379513	1.073437	-0.214551
H98	H	1.130935	0.288488	-0.748133
H99	H	1.340355	1.132115	-0.262578
C100	C	1.471981	0.862900	-0.101278
C101	C	1.552664	0.846893	-0.121776
C102	C	1.598918	0.876630	-0.065310
H103	H	1.475147	0.917219	-0.097491
H104	H	1.445465	0.839597	-0.052855
H105	H	1.579174	0.870198	-0.170186
H106	H	1.549523	0.792580	-0.125558
H107	H	1.572401	0.853327	-0.016886
H108	H	1.602077	0.930947	-0.061527
H109	H	1.653663	0.865767	-0.079206
H110	H	1.280046	0.410156	-0.599700
H111	H	1.435577	0.711007	-0.145617
C112	C	1.215780	0.357890	-0.636799
C113	C	1.200592	0.424887	-0.595936
C114	C	1.180930	0.409044	-0.516581
H115	H	1.167328	0.318428	-0.626011
H116	H	1.261211	0.341172	-0.621474
H117	H	1.155166	0.441595	-0.611255
H118	H	1.249034	0.464358	-0.606700
H119	H	1.226360	0.392326	-0.501256
H120	H	1.132479	0.369581	-0.505801
H121	H	1.170629	0.454500	-0.488845
C122	C	1.249153	0.783807	-0.374131
C123	C	1.201678	0.768276	-0.432289
C124	C	1.188432	0.688981	-0.448402
H125	H	1.301415	0.768395	-0.390988
H126	H	1.220093	0.755963	-0.328750
H127	H	1.230739	0.796110	-0.477661
H128	H	1.149409	0.783669	-0.415448
H129	H	1.159372	0.661137	-0.403021
H130	H	1.240696	0.673576	-0.465257
H131	H	1.156213	0.678431	-0.487859
H132	H	1.100914	0.263952	-0.876917
C133	C	1.123054	0.281911	-1.034114
C134	C	1.058091	0.228927	-0.991013
C135	C	1.008295	0.188244	-1.040360
H136	H	1.100288	0.317123	-1.059199
H137	H	1.156111	0.255030	-1.071736
H138	H	1.025039	0.255807	-0.953405
H139	H	1.080834	0.193700	-0.965930
H140	H	1.041352	0.161362	-1.077981
H141	H	0.985535	0.223461	-1.065442
H142	H	0.964217	0.152284	-1.011124
C143	C	1.509711	0.597449	-0.550754
C144	C	1.574699	0.650410	-0.593855
C145	C	1.624540	0.691036	-0.544515
H146	H	1.476717	0.624350	-0.513112
H147	H	1.532444	0.562178	-0.525698
H148	H	1.551967	0.685677	-0.618899
H149	H	1.607712	0.623530	-0.631495
H150	H	1.647273	0.655764	-0.519458
H151	H	1.591540	0.717932	-0.506875
H152	H	1.668644	0.726970	-0.573752
C153	C	1.520701	0.606146	-0.844903
C154	C	1.576624	0.572344	-0.899117
C155	C	1.646117	0.628790	-0.929024
H156	H	1.503081	0.645509	-0.869208
H157	H	1.547535	0.627995	-0.804104
H158	H	1.549794	0.550507	-0.939908
H159	H	1.594266	0.532988	-0.874830
H160	H	1.672951	0.650638	-0.888226
H161	H	1.628489	0.668148	-0.953326
H162	H	1.684072	0.605862	-0.965806
C163	C	1.180367	0.887130	-0.458550
C164	C	1.154243	0.947430	-0.490595
C165	C	1.108070	0.917754	-0.547138
H166	H	1.214217	0.862862	-0.497980
H167	H	1.132904	0.850371	-0.435732
H168	H	1.201699	0.984176	-0.513414
H169	H	1.120381	0.971704	-0.451185
H170	H	1.060607	0.880994	-0.524320
H171	H	1.141926	0.893485	-0.586563
H172	H	1.090332	0.958660	-0.568883
C173	C	1.371495	0.484547	-0.993422
C174	C	1.378105	0.489885	-1.073470
C175	C	1.447488	0.546400	-1.103476
H176	H	1.364931	0.532990	-0.970190
H177	H	1.420646	0.470810	-0.982718
H178	H	1.328965	0.503627	-1.084167
H179	H	1.384682	0.441456	-1.096723
H180	H	1.496639	0.532663	-1.092772
H181	H	1.440917	0.594839	-1.080238
H182	H	1.451986	0.550025	-1.157792
H183	H	1.173016	1.023873	-0.467691
H184	H	1.411603	0.517328	-0.926499
