data_functionalizedCrystal
_audit_creation_method	'MofGen! by Chris Wilmer'
_symmetry_space_group_name_H-M	'P1'
_symmetry_Int_Tables_number	1
_symmetry_cell_setting	triclinic
loop_
_symmetry_equiv_pos_as_xyz
  x,y,z
_cell_length_a	18.215407
_cell_length_b	14.908178
_cell_length_c	18.215399
_cell_angle_alpha	86.674478
_cell_angle_beta	89.983101
_cell_angle_gamma	93.311509
loop_
_atom_site_label
_atom_site_type_symbol
_atom_site_fract_x
_atom_site_fract_y
_atom_site_fract_z
Zn1	Zn	1.108197	-0.359256	-0.399140
Zn2	Zn	1.358197	-0.109256	-0.149140
Zn3	Zn	1.608197	0.140744	0.100860
Zn4	Zn	1.858197	0.390744	0.350860
Zn5	Zn	1.101018	-0.510136	-0.268968
Zn6	Zn	1.351018	-0.260136	-0.018968
Zn7	Zn	1.601018	-0.010136	0.231032
Zn8	Zn	1.851018	0.239864	0.481032
Zn9	Zn	0.985128	-0.359278	-0.276093
Zn10	Zn	1.235128	-0.109278	-0.026093
Zn11	Zn	1.485128	0.140722	0.223907
Zn12	Zn	1.735128	0.390722	0.473907
Zn13	Zn	0.978011	-0.510078	-0.392002
Zn14	Zn	1.228011	-0.260078	-0.142002
Zn15	Zn	1.478011	-0.010078	0.107998
Zn16	Zn	1.728011	0.239922	0.357998
O17	O	1.043088	-0.434687	-0.334051
O18	O	1.293088	-0.184687	-0.084051
O19	O	1.543088	0.065313	0.165949
O20	O	1.793088	0.315313	0.415949
O21	O	1.210228	-0.379286	-0.381878
O22	O	1.460228	-0.129286	-0.131878
O23	O	1.710228	0.120714	0.118122
O24	O	1.960228	0.370714	0.368122
O25	O	1.085619	-0.490158	-0.166928
O26	O	1.335619	-0.240158	0.083072
O27	O	1.585619	0.009842	0.333072
O28	O	1.835619	0.259842	0.583072
O29	O	1.007437	-0.233021	-0.298384
O30	O	1.257437	0.016979	-0.048384
O31	O	1.507437	0.266979	0.201616
O32	O	1.757437	0.516979	0.451616
O33	O	1.204954	-0.490137	-0.286242
O34	O	1.454954	-0.240137	-0.036242
O35	O	1.704954	0.009863	0.213758
O36	O	1.954954	0.259863	0.463758
O37	O	1.097855	-0.233005	-0.388786
O38	O	1.347855	0.016995	-0.138786
O39	O	1.597855	0.266995	0.111214
O40	O	1.847855	0.516995	0.361214
O41	O	1.000476	-0.379323	-0.172162
O42	O	1.250476	-0.129323	0.077838
O43	O	1.500476	0.120677	0.327838
O44	O	1.750476	0.370677	0.577838
O45	O	0.881201	-0.379267	-0.291463
O46	O	1.131201	-0.129267	-0.041463
O47	O	1.381201	0.120733	0.208537
O48	O	1.631201	0.370733	0.458537
O49	O	0.995306	-0.490038	-0.495935
O50	O	1.245306	-0.240038	-0.245935
O51	O	1.495306	0.009962	0.004065
O52	O	1.745306	0.259962	0.254065
O53	O	0.875971	-0.490059	-0.376621
O54	O	1.125971	-0.240059	-0.126621
O55	O	1.375971	0.009941	0.123379
O56	O	1.625971	0.259941	0.373379
O57	O	1.090953	-0.379230	-0.501179
O58	O	1.340953	-0.129230	-0.251179
O59	O	1.590953	0.120770	-0.001179
O60	O	1.840953	0.370770	0.248821
O61	O	1.078718	-0.636383	-0.279320
O62	O	1.328718	-0.386383	-0.029320
O63	O	1.578718	-0.136383	0.220680
O64	O	1.828718	0.113617	0.470680
O65	O	0.988345	-0.636340	-0.369713
O66	O	1.238345	-0.386340	-0.119713
O67	O	1.488345	-0.136340	0.130287
O68	O	1.738345	0.113660	0.380287
C69	C	0.851883	-0.434659	-0.334041
C70	C	1.101883	-0.184659	-0.084041
C71	C	1.351883	0.065341	0.165959
C72	C	1.601883	0.315341	0.415959
C73	C	0.770084	-0.434669	-0.334053
C74	C	1.020084	-0.184669	-0.084053
C75	C	1.270084	0.065331	0.165947
C76	C	1.520084	0.315331	0.415947
C77	C	0.502318	-0.492471	-0.378324
C78	C	0.752318	-0.242471	-0.128324
C79	C	1.002318	0.007529	0.121676
C80	C	1.252318	0.257529	0.371676
C81	C	0.579177	-0.492464	-0.378321
C82	C	0.829177	-0.242464	-0.128321
C83	C	1.079177	0.007536	0.121679
C84	C	1.329177	0.257536	0.371679
C85	C	0.584600	-0.376923	-0.289790
C86	C	0.834600	-0.126923	-0.039790
C87	C	1.084600	0.123077	0.210210
C88	C	1.334600	0.373077	0.460210
C89	C	0.507742	-0.376936	-0.289790
C90	C	0.757742	-0.126936	-0.039790
C91	C	1.007742	0.123064	0.210210
C92	C	1.257742	0.373064	0.460210
C93	C	0.466603	-0.434709	-0.334061
C94	C	0.716603	-0.184709	-0.084061
C95	C	0.966603	0.065291	0.165939
C96	C	1.216603	0.315291	0.415939
C97	C	0.620320	-0.434688	-0.334058
C98	C	0.870320	-0.184688	-0.084058
C99	C	1.120320	0.065312	0.165942
C100	C	1.370320	0.315312	0.415942
C101	C	0.703654	-0.434679	-0.334054
C102	C	0.953654	-0.184679	-0.084054
C103	C	1.203654	0.065321	0.165946
C104	C	1.453654	0.315321	0.415946
C105	C	0.383263	-0.434719	-0.334064
C106	C	0.633263	-0.184719	-0.084064
C107	C	0.883263	0.065281	0.165936
C108	C	1.133263	0.315281	0.415936
C109	C	1.032000	-0.669097	-0.322985
C110	C	1.282000	-0.419097	-0.072985
C111	C	1.532000	-0.169097	0.177015
C112	C	1.782000	0.080903	0.427015
C113	C	1.027323	-0.769379	-0.318276
C114	C	1.277323	-0.519379	-0.068276
C115	C	1.527323	-0.269379	0.181724
C116	C	1.777323	-0.019379	0.431724
C117	C	1.112617	-0.957653	-0.403663
C118	C	1.362617	-0.707653	-0.153663
C119	C	1.612617	-0.457653	0.096337
C120	C	1.862617	-0.207653	0.346337
C121	C	1.108225	-1.051877	-0.399241
C122	C	1.358225	-0.801877	-0.149241
C123	C	1.608225	-0.551877	0.100759
C124	C	1.858225	-0.301877	0.350759
C125	C	1.014146	-1.052052	-0.305013
C126	C	1.264146	-0.802052	-0.055013
C127	C	1.514146	-0.552052	0.194987
C128	C	1.764146	-0.302052	0.444987
C129	C	1.018538	-0.957828	-0.309435
C130	C	1.268538	-0.707828	-0.059435
C131	C	1.518538	-0.457828	0.190565
C132	C	1.768538	-0.207828	0.440565
C133	C	1.067775	-0.910632	-0.358761
C134	C	1.317775	-0.660632	-0.108761
C135	C	1.567775	-0.410632	0.141239
C136	C	1.817775	-0.160632	0.391239
C137	C	1.072170	-0.816407	-0.363180
C138	C	1.322170	-0.566407	-0.113180
C139	C	1.572170	-0.316407	0.136820
C140	C	1.822170	-0.066407	0.386820
C141	C	0.978087	-0.816584	-0.268956
C142	C	1.228087	-0.566584	-0.018956
C143	C	1.478087	-0.316584	0.231044
C144	C	1.728087	-0.066584	0.481044
C145	C	0.973696	-0.910808	-0.264533
C146	C	1.223696	-0.660808	-0.014533
C147	C	1.473696	-0.410808	0.235467
C148	C	1.723696	-0.160808	0.485467
C149	C	1.235040	-0.434715	-0.334061
C150	C	1.485040	-0.184715	-0.084061
C151	C	1.735040	0.065285	0.165939
C152	C	1.985040	0.315285	0.415939
C153	C	1.316838	-0.434728	-0.334066
C154	C	1.566838	-0.184728	-0.084066
C155	C	1.816838	0.065272	0.165934
C156	C	2.066838	0.315272	0.415934
C157	C	1.043136	-0.434625	-0.526007
C158	C	1.293136	-0.184625	-0.276007
C159	C	1.543136	0.065375	-0.026007
C160	C	1.793136	0.315375	0.223993
C161	C	1.043157	-0.434598	-0.607807
C162	C	1.293157	-0.184598	-0.357807
C163	C	1.543157	0.065402	-0.107807
C164	C	1.793157	0.315402	0.142193
C165	C	1.054240	-0.199361	-0.345176
C166	C	1.304240	0.050639	-0.095176
C167	C	1.554240	0.300639	0.154824
C168	C	1.804240	0.550639	0.404824
C169	C	1.058993	-0.099079	-0.349917
C170	C	1.308993	0.150921	-0.099917
C171	C	1.558993	0.400921	0.150083
C172	C	1.808993	0.650921	0.400083
C173	C	1.092979	-0.376847	-0.798735
C174	C	1.342979	-0.126847	-0.548735
C175	C	1.592979	0.123153	-0.298735
C176	C	1.842979	0.373153	-0.048735
C177	C	1.092989	-0.376820	-0.875595
C178	C	1.342989	-0.126820	-0.625595
C179	C	1.592989	0.123180	-0.375595
C180	C	1.842989	0.373180	-0.125595
C181	C	0.993392	-0.492211	-0.870123
C182	C	1.243392	-0.242211	-0.620123
C183	C	1.493392	0.007789	-0.370123
C184	C	1.743392	0.257789	-0.120123
C185	C	0.993379	-0.492232	-0.793265
C186	C	1.243379	-0.242232	-0.543265
C187	C	1.493379	0.007768	-0.293265
C188	C	1.743379	0.257768	-0.043265
C189	C	1.043177	-0.434551	-0.757573
C190	C	1.293177	-0.184551	-0.507573
C191	C	1.543177	0.065449	-0.257573
C192	C	1.793177	0.315449	-0.007573
C193	C	1.043200	-0.434504	-0.911291
C194	C	1.293200	-0.184504	-0.661291
C195	C	1.543200	0.065496	-0.411291
C196	C	1.793200	0.315496	-0.161291
C197	C	1.043210	-0.434476	-0.994626
C198	C	1.293210	-0.184476	-0.744626
C199	C	1.543210	0.065524	-0.494626
C200	C	1.793210	0.315524	-0.244626
C201	C	1.043166	-0.434578	-0.674232
C202	C	1.293166	-0.184578	-0.424232
C203	C	1.543166	0.065422	-0.174232
C204	C	1.793166	0.315422	0.075768
C205	C	1.043086	-0.434684	-0.142845
C206	C	1.293086	-0.184684	0.107155
C207	C	1.543086	0.065316	0.357155
C208	C	1.793086	0.315316	0.607155
C209	C	1.043220	-0.434456	-0.061057
C210	C	1.293220	-0.184456	0.188943
C211	C	1.543220	0.065544	0.438943
C212	C	1.793220	0.315544	0.688943
H213	H	0.618104	-0.329885	-0.253747
H214	H	0.868104	-0.079885	-0.003747
H215	H	1.118104	0.170115	0.246253
H216	H	1.368104	0.420115	0.496253
H217	H	1.152713	-0.919225	-0.443822
H218	H	1.402713	-0.669225	-0.193822
H219	H	1.652713	-0.419225	0.056178
H220	H	1.902713	-0.169225	0.306178
H221	H	0.478662	-0.329897	-0.253742
H222	H	0.728662	-0.079897	-0.003742
H223	H	0.978662	0.170103	0.246258
H224	H	1.228662	0.420103	0.496258
H225	H	1.112264	-0.777980	-0.403341
H226	H	1.362264	-0.527980	-0.153341
H227	H	1.612264	-0.277980	0.096659
H228	H	1.862264	-0.027980	0.346659
H229	H	0.608252	-0.539501	-0.414363
H230	H	0.858252	-0.289501	-0.164363
H231	H	1.108252	-0.039501	0.085637
H232	H	1.358252	0.210499	0.335637
H233	H	1.133526	-0.329877	-0.769677
H234	H	1.383526	-0.079877	-0.519677
H235	H	1.633526	0.170123	-0.269677
H236	H	1.883526	0.420123	-0.019677
H237	H	1.144736	-1.090157	-0.435809
H238	H	1.394736	-0.840157	-0.185809
H239	H	1.644736	-0.590157	0.064191
H240	H	1.894736	-0.340157	0.314191
H241	H	0.974056	-1.090495	-0.264857
H242	H	1.224056	-0.840495	-0.014857
H243	H	1.474056	-0.590495	0.235143
H244	H	1.724056	-0.340495	0.485143
H245	H	0.952850	-0.539174	-0.899193
H246	H	1.202850	-0.289174	-0.649193
H247	H	1.452850	-0.039174	-0.399193
H248	H	1.702850	0.210826	-0.149193
H249	H	0.933606	-0.949248	-0.224375
H250	H	1.183606	-0.699248	0.025625
H251	H	1.433606	-0.449248	0.275625
H252	H	1.683606	-0.199248	0.525625
H253	H	0.468824	-0.539514	-0.414372
H254	H	0.718824	-0.289514	-0.164372
H255	H	0.968824	-0.039514	0.085628
H256	H	1.218824	0.210486	0.335628
H257	H	1.133542	-0.329830	-0.909107
H258	H	1.383542	-0.079830	-0.659107
H259	H	1.633542	0.170170	-0.409107
H260	H	1.883542	0.420170	-0.159107
H261	H	0.952819	-0.539221	-0.759749
H262	H	1.202819	-0.289221	-0.509749
H263	H	1.452819	-0.039221	-0.259749
H264	H	1.702819	0.210779	-0.009749
H265	H	0.941576	-0.778289	-0.232391
H266	H	1.191576	-0.528289	0.017609
H267	H	1.441576	-0.278289	0.267609
H268	H	1.691576	-0.028289	0.517609
