data_functionalizedCrystal
_audit_creation_method	'MofGen! by Chris Wilmer'
_symmetry_space_group_name_H-M	'P1'
_symmetry_Int_Tables_number	1
_symmetry_cell_setting	triclinic
loop_
_symmetry_equiv_pos_as_xyz
  x,y,z
_cell_length_a	23.532407
_cell_length_b	23.532409
_cell_length_c	7.088929
_cell_angle_alpha	83.818539
_cell_angle_beta	96.169690
_cell_angle_gamma	82.849119
loop_
_atom_site_label
_atom_site_type_symbol
_atom_site_fract_x
_atom_site_fract_y
_atom_site_fract_z
O1	O	0.749390	0.075013	-0.158739
O2	O	0.583524	0.085018	-0.158793
O3	O	0.671458	-0.002916	-0.158766
O4	O	0.661456	0.162947	-0.158765
O5	O	0.683210	-0.014694	0.159212
O6	O	0.595276	0.073240	0.159186
O7	O	0.761141	0.063235	0.159240
Cu8	Cu	0.679282	0.067162	0.188247
Cu9	Cu	0.665384	0.081091	-0.187800
O10	O	0.673208	0.151169	0.159214
C11	C	0.568184	0.078875	0.000189
C12	C	0.504966	0.078110	0.000168
C13	C	0.677079	-0.030021	0.000218
C14	C	0.676312	-0.093237	0.000204
C15	C	0.666647	-0.360062	-0.173136
C16	C	0.667358	-0.300661	-0.173136
O17	O	0.662299	-0.264477	-0.320541
N18	N	0.674117	-0.277380	0.000197
C19	C	0.680169	-0.313502	0.173542
O20	O	0.685983	-0.288245	0.320975
C21	C	0.679462	-0.372902	0.173540
C22	C	0.672697	-0.396179	0.000195
C23	C	0.659884	-0.383340	-0.346466
C24	C	0.659171	-0.442736	-0.346465
C25	C	0.665221	-0.478854	-0.173134
C26	C	0.671985	-0.455575	0.000196
C27	C	0.685518	-0.409024	0.346883
C28	C	0.684811	-0.468427	0.346866
C29	C	0.678046	-0.491705	0.173521
C30	C	0.677323	-0.551089	0.173529
N31	N	0.670564	-0.574371	0.000195
C32	C	0.664514	-0.538253	-0.173136
C33	C	0.681656	-0.188759	0.173532
C34	C	0.682359	-0.129360	0.173536
C35	C	0.669550	-0.116523	-0.173142
C36	C	0.668842	-0.175923	-0.173144
C37	C	0.674898	-0.212041	0.000199
C38	C	0.663017	-0.662990	-0.173121
C39	C	0.662303	-0.722391	-0.173105
C40	C	0.675116	-0.735223	0.173573
C41	C	0.675827	-0.675826	0.173558
C42	C	0.669779	-0.639711	0.000195
O43	O	0.682381	-0.587309	0.320858
O44	O	0.658708	-0.563520	-0.320544
C45	C	0.105867	0.125340	0.000255
C46	C	0.046467	0.124628	0.000267
O47	O	0.009725	0.168411	0.000337
N48	N	0.023840	0.072352	0.000263
C49	C	0.060617	0.020784	0.000267
O50	O	0.035917	-0.023747	0.000267
C51	C	0.120017	0.021496	0.000269
C52	C	0.142639	0.073776	0.000253
C53	C	0.128490	0.177616	0.000241
C54	C	0.187885	0.178328	0.000226
C55	C	0.224658	0.126764	0.000225
C56	C	0.202035	0.074488	0.000238
C57	C	0.156793	-0.030073	0.000287
C58	C	0.216196	-0.029356	0.000290
C59	C	0.238818	0.022924	0.000275
C60	C	0.298203	0.023635	0.000221
N61	N	0.320829	0.075911	0.000225
C62	C	0.284057	0.127476	0.000227
C63	C	-0.064125	0.019292	0.000266
C64	C	-0.123524	0.018580	0.000251
C65	C	-0.137670	0.122425	0.000254
C66	C	-0.078271	0.123137	0.000256
C67	C	-0.041498	0.071568	0.000270
C68	C	0.408792	0.128966	0.000193
C69	C	0.468194	0.129674	0.000170
C70	C	0.482335	0.025829	0.000177
C71	C	0.422939	0.025122	0.000190
C72	C	0.386169	0.076695	0.000204
O73	O	0.334979	-0.020125	0.000159
O74	O	0.308766	0.171998	0.000252
C75	C	0.776482	0.069379	0.000254
C76	C	0.839699	0.070144	0.000262
C77	C	0.667587	0.178274	0.000225
C78	C	0.668353	0.241491	0.000227
N79	N	0.689061	0.057365	0.452738
N80	N	0.655610	0.090884	-0.452291
H81	H	0.656792	-0.741340	-0.314269
C82	C	0.398052	-0.032384	0.000186
H83	H	0.428462	-0.062991	0.000188
H84	H	0.371068	-0.030714	-0.110686
H85	H	0.379283	-0.038928	0.111100
H86	H	0.098555	0.219608	0.000250
H87	H	0.620942	0.125619	0.466053
H88	H	0.681312	-0.656870	0.314709
C89	C	0.735899	0.010440	0.563048
H90	H	0.735230	0.011110	0.696555
H91	H	0.772685	0.017578	0.530325
H92	H	0.728669	-0.026323	0.530337
H93	H	0.658093	-0.633591	-0.314289
H94	H	0.378861	0.170962	0.000211
H95	H	-0.059856	0.165707	0.000254
H96	H	0.654958	-0.353938	-0.487621
C97	C	0.661417	-0.201525	-0.363820
H98	H	0.657921	-0.171503	-0.467040
H99	H	0.627662	-0.219911	-0.371072
H100	H	0.694099	-0.228949	-0.371000
H101	H	0.653667	-0.461683	-0.487620
H102	H	0.664621	-0.087105	-0.314278
H103	H	0.687857	-0.110411	0.314691
H104	H	0.680039	-0.764640	0.314695
C105	C	-0.178124	0.179146	0.000270
H106	H	-0.156148	0.210386	0.000255
H107	H	-0.197488	0.176915	0.111158
H108	H	-0.205692	0.185132	-0.110628
C109	C	0.688306	-0.228482	0.364222
H110	H	0.692426	-0.206104	0.467441
H111	H	0.721510	-0.256448	0.371465
H112	H	0.655074	-0.247392	0.371414
H113	H	-0.034188	-0.022703	0.000261
C114	C	0.691468	-0.508153	0.537549
H115	H	0.695592	-0.485778	0.640773
H116	H	0.724671	-0.536119	0.544774
H117	H	0.658235	-0.527062	0.544746
H118	H	0.512286	-0.016153	0.000168
C119	C	0.493078	0.187183	0.000152
H120	H	0.533720	0.180226	0.000124
H121	H	0.484539	0.204294	0.111037
H122	H	0.476330	0.212504	-0.110749
C123	C	0.212766	0.235834	0.000223
H124	H	0.253408	0.228882	0.000205
H125	H	0.204223	0.252942	0.111109
H126	H	0.196018	0.261156	-0.110677
C127	C	-0.148403	-0.038927	0.000249
H128	H	-0.117990	-0.069532	0.000260
H129	H	-0.175384	-0.037260	-0.110628
H130	H	-0.167174	-0.045473	0.111158
H131	H	0.246134	-0.071350	0.000303
C132	C	0.131923	-0.087583	0.000330
H133	H	0.162339	-0.118186	0.000358
H134	H	0.104942	-0.085925	-0.110544
H135	H	0.113152	-0.094124	0.111243
H136	H	0.691033	-0.390083	0.488039
