data_functionalizedCrystal
_audit_creation_method	'MofGen! by Chris Wilmer'
_symmetry_space_group_name_H-M	'P1'
_symmetry_Int_Tables_number	1
_symmetry_cell_setting	triclinic
loop_
_symmetry_equiv_pos_as_xyz
  x,y,z
_cell_length_a	13.262390
_cell_length_b	11.792241
_cell_length_c	11.804783
_cell_angle_alpha	76.781756
_cell_angle_beta	92.341250
_cell_angle_gamma	84.317877
loop_
_atom_site_label
_atom_site_type_symbol
_atom_site_fract_x
_atom_site_fract_y
_atom_site_fract_z
O1	O	1.294034	0.045324	0.518106
O2	O	1.006432	0.081281	0.424966
O3	O	1.157214	-0.102350	0.473788
O4	O	1.143252	0.228955	0.469283
O5	O	1.193019	-0.063650	0.287345
O6	O	1.042237	0.119981	0.238523
O7	O	1.329839	0.084023	0.331663
Cu8	Cu	1.189308	0.105536	0.268069
Cu9	Cu	1.146964	0.059769	0.488560
O10	O	1.179057	0.267655	0.282840
C11	C	0.987515	0.102175	0.319820
C12	C	0.877805	0.106761	0.284290
C13	C	0.490486	0.035289	0.590675
C14	C	0.593564	0.030974	0.624059
C15	C	0.664629	0.049921	0.539120
C16	C	0.632607	0.073182	0.420790
C17	C	0.529519	0.077489	0.387403
C18	C	0.703663	0.092120	0.335848
C19	C	0.671640	0.115382	0.217519
C20	C	0.568562	0.119688	0.184137
C21	C	0.497497	0.100741	0.269077
C22	C	0.806750	0.087814	0.369235
C23	C	0.845783	0.130014	0.165964
C24	C	0.742705	0.134329	0.132580
C25	C	1.174239	-0.125230	0.380283
C26	C	1.171615	-0.251062	0.379434
C27	C	1.166785	-0.481444	0.377890
C28	C	1.169469	-0.353243	0.378748
C29	C	1.348755	0.063129	0.436811
C30	C	1.458464	0.058542	0.472348
C31	C	1.162031	0.290535	0.376348
C32	C	1.164654	0.416365	0.377204
N33	N	1.219097	0.137725	0.112990
C34	C	1.045610	-0.049733	-0.317226
C35	C	1.023055	-0.074089	-0.199880
C36	C	1.072064	-0.021138	-0.121657
C37	C	1.143631	0.056174	-0.160791
C38	C	1.166194	0.080526	-0.278147
C39	C	1.192648	0.109121	-0.082578
C40	C	1.264215	0.186433	-0.121712
C41	C	1.286774	0.210781	-0.239057
C42	C	1.237766	0.157830	-0.317280
C43	C	1.170085	0.084769	0.034778
C44	C	1.290668	0.215028	0.073857
C45	C	1.313223	0.239385	-0.043489
N46	N	1.117182	0.027571	0.643641
H47	H	0.748559	0.046407	0.566308
H48	H	1.256122	0.177663	-0.412836
H49	H	0.432619	0.019854	0.659820
H50	H	1.330576	0.258145	0.137548
H51	H	1.111813	0.021823	0.066629
C52	C	0.841427	0.062804	0.497708
C53	C	0.793995	0.149382	0.547465
C54	C	0.825924	0.126393	0.665815
H55	H	0.823705	-0.011700	0.536464
H56	H	0.912989	0.063004	0.505479
H57	H	0.722449	0.149170	0.539703
H58	H	0.811712	0.223895	0.508743
H59	H	0.897486	0.126593	0.673586
H60	H	0.808200	0.051887	0.704560
H61	H	0.793753	0.185137	0.699588
C62	C	0.945239	-0.157832	-0.157296
C63	C	0.865755	-0.098881	-0.111484
C64	C	0.794043	-0.175984	-0.072242
H65	H	0.919165	-0.185902	-0.220601
H66	H	0.976587	-0.222047	-0.098426
H67	H	0.834410	-0.034687	-0.170348
H68	H	0.891798	-0.070814	-0.048167
H69	H	0.825391	-0.240200	-0.013372
H70	H	0.767977	-0.204050	-0.135553
H71	H	0.740110	-0.136000	-0.041144
C72	C	0.533768	0.144682	0.055691
C73	C	0.486356	0.050125	0.034013
C74	C	0.454308	0.073096	-0.084301
H75	H	0.487130	0.213774	0.035978
H76	H	0.590837	0.155292	0.009850
H77	H	0.429294	0.039529	0.079839
H78	H	0.532974	-0.018978	0.053699
H79	H	0.511377	0.083706	-0.130142
H80	H	0.407674	0.142190	-0.104003
H81	H	0.422144	0.008939	-0.099027
C82	C	1.391073	0.323119	-0.086001
C83	C	1.470583	0.264173	-0.131778
C84	C	1.542322	0.341266	-0.170937
H85	H	1.359790	0.387354	-0.144868
H86	H	1.417100	0.351152	-0.022631
H87	H	1.444558	0.236158	-0.195140
H88	H	1.501893	0.199944	-0.072931
H89	H	1.568349	0.369298	-0.107567
H90	H	1.511029	0.405497	-0.229800
H91	H	1.596282	0.301279	-0.201991
H92	H	0.619630	0.012028	0.720403
C93	C	0.707898	0.159332	0.004136
C94	C	0.660477	0.064783	-0.017544
C95	C	0.628412	0.087767	-0.135853
H96	H	0.661262	0.228427	-0.015562
H97	H	0.764961	0.169946	-0.041716
H98	H	0.603422	0.054183	0.028293
H99	H	0.707094	-0.004322	0.002128
H100	H	0.685475	0.098380	-0.181706
H101	H	0.581780	0.156863	-0.155541
H102	H	0.596242	0.023616	-0.150581
H103	H	0.413560	0.104257	0.241901
C104	C	0.922909	0.150361	0.073690
C105	C	0.920228	0.065876	0.007699
C106	C	0.991276	0.084567	-0.077296
H107	H	0.906929	0.226272	0.024018
H108	H	0.988911	0.144416	0.110477
H109	H	0.854240	0.071832	-0.029087
H110	H	0.936218	-0.010044	0.057337
H111	H	1.057279	0.078622	-0.040509
H112	H	0.975290	0.160481	-0.126959
H113	H	0.989473	0.027242	-0.122074
C114	C	1.047761	-0.047707	0.005809
C115	C	1.136166	-0.097014	0.075720
C116	C	1.113807	-0.121514	0.193148
H117	H	1.022237	0.022770	0.025878
H118	H	0.998157	-0.101379	0.017976
H119	H	1.185754	-0.043344	0.063559
H120	H	1.161704	-0.167500	0.055688
H121	H	1.064203	-0.175187	0.205316
H122	H	1.088282	-0.051033	0.213205
H123	H	1.173784	-0.154981	0.240596
C124	C	1.364627	0.294514	-0.281558
C125	C	1.444142	0.235567	-0.327327
C126	C	1.515887	0.312657	-0.366471
H127	H	1.333351	0.358752	-0.340426
H128	H	1.390649	0.322541	-0.218182
H129	H	1.418123	0.207558	-0.390696
H130	H	1.475445	0.171335	-0.268481
H131	H	1.541908	0.340685	-0.303096
H132	H	1.484601	0.376892	-0.425335
H133	H	1.569850	0.272671	-0.397521
H134	H	1.005722	-0.092846	-0.380922
