data_functionalizedCrystal
_audit_creation_method	'MofGen! by Chris Wilmer'
_symmetry_space_group_name_H-M	'P1'
_symmetry_Int_Tables_number	1
_symmetry_cell_setting	triclinic
loop_
_symmetry_equiv_pos_as_xyz
  x,y,z
_cell_length_a	14.908571
_cell_length_b	16.959454
_cell_length_c	14.908662
_cell_angle_alpha	93.272532
_cell_angle_beta	83.592432
_cell_angle_gamma	86.716421
loop_
_atom_site_label
_atom_site_type_symbol
_atom_site_fract_x
_atom_site_fract_y
_atom_site_fract_z
Zn1	Zn	1.413346	-0.416146	-0.591532
Zn2	Zn	1.913346	0.083854	-0.091532
Zn3	Zn	1.404515	-0.540237	-0.440173
Zn4	Zn	1.904515	-0.040237	0.059827
Zn5	Zn	1.253247	-0.399976	-0.431466
Zn6	Zn	1.753247	0.100024	0.068534
Zn7	Zn	1.261947	-0.540178	-0.582772
Zn8	Zn	1.761947	-0.040178	-0.082772
O9	O	1.333264	-0.474134	-0.511486
O10	O	1.833264	0.025866	-0.011486
O11	O	1.538841	-0.439399	-0.578764
O12	O	2.038841	0.060601	-0.078764
O13	O	1.377112	-0.514889	-0.312352
O14	O	1.877112	-0.014889	0.187648
O15	O	1.274540	-0.291514	-0.452721
O16	O	1.774540	0.208486	0.047279
O17	O	1.532353	-0.530568	-0.467561
O18	O	2.032353	-0.030568	0.032439
O19	O	1.392163	-0.303394	-0.570321
O20	O	1.892163	0.196606	-0.070321
O21	O	1.265977	-0.411840	-0.305954
O22	O	1.765977	0.088160	0.194046
O23	O	1.127734	-0.411783	-0.444227
O24	O	1.627734	0.088217	0.055773
O25	O	1.289367	-0.530467	-0.710600
O26	O	1.789367	-0.030467	-0.210600
O27	O	1.134126	-0.514788	-0.555391
O28	O	1.634126	-0.014788	-0.055391
O29	O	1.400599	-0.439342	-0.717036
O30	O	1.900599	0.060658	-0.217036
O31	O	1.385547	-0.650836	-0.459067
O32	O	1.885547	-0.150836	0.040933
O33	O	1.280803	-0.650792	-0.563834
O34	O	1.780803	-0.150792	-0.063834
C35	C	1.098087	-0.461525	-0.497914
C36	C	1.598087	0.038475	0.002086
C37	C	0.997478	-0.456150	-0.492129
C38	C	1.497478	0.043850	0.007871
C39	C	0.815119	-0.553459	-0.596858
C40	C	1.315119	-0.053459	-0.096858
C41	C	0.720588	-0.548412	-0.591426
C42	C	1.220588	-0.048412	-0.091426
C43	C	0.713885	-0.441006	-0.475838
C44	C	1.213885	0.058994	0.024162
C45	C	0.808416	-0.446053	-0.481270
C46	C	1.308416	0.053947	0.018730
C47	C	0.859029	-0.502282	-0.541781
C48	C	1.359029	-0.002282	-0.041781
C49	C	0.953561	-0.507333	-0.547208
C50	C	1.453561	-0.007333	-0.047208
C51	C	0.946857	-0.399923	-0.431625
C52	C	1.446857	0.100077	0.068375
C53	C	0.852326	-0.394876	-0.426193
C54	C	1.352326	0.105124	0.073807
C55	C	1.333187	-0.679496	-0.511466
C56	C	1.833187	-0.179496	-0.011466
C57	C	1.333239	-0.767356	-0.511492
C58	C	1.833239	-0.267356	-0.011492
C59	C	1.278807	-1.138844	-0.566036
C60	C	1.778807	-0.638844	-0.066036
C61	C	1.387978	-1.138840	-0.457042
C62	C	1.887978	-0.638840	0.042958
C63	C	1.387946	-1.056292	-0.457031
C64	C	1.887946	-0.556292	0.042969
C65	C	1.333342	-1.015016	-0.511523
C66	C	1.833342	-0.515016	-0.011523
C67	C	1.278771	-1.056288	-0.566026
C68	C	1.778771	-0.556288	-0.066026
C69	C	1.442509	-1.015012	-0.402523
C70	C	1.942509	-0.515012	0.097477
C71	C	1.442478	-0.932459	-0.402510
C72	C	1.942478	-0.432459	0.097490
C73	C	1.387879	-0.891183	-0.457008
C74	C	1.887879	-0.391183	0.042992
C75	C	1.333306	-0.932460	-0.511513
C76	C	1.833306	-0.432460	-0.011513
C77	C	1.278703	-0.891184	-0.566005
C78	C	1.778703	-0.391184	-0.066005
C79	C	1.224135	-0.932461	-0.620516
C80	C	1.724135	-0.432461	-0.120516
C81	C	1.224172	-1.015012	-0.620523
C82	C	1.724172	-0.515012	-0.120523
C83	C	1.387842	-0.808632	-0.457000
C84	C	1.887842	-0.308632	0.043000
C85	C	1.278667	-0.808629	-0.565995
C86	C	1.778667	-0.308629	-0.065995
C87	C	1.569359	-0.486794	-0.525111
C88	C	2.069359	0.013206	-0.025111
C89	C	1.669968	-0.492188	-0.530917
C90	C	2.169968	0.007812	-0.030917
C91	C	1.346938	-0.486701	-0.747580
C92	C	1.846938	0.013299	-0.247580
C93	C	1.352765	-0.492057	-0.848189
C94	C	1.852765	0.007943	-0.348189
C95	C	1.333366	-0.267973	-0.511527
C96	C	1.833366	0.232027	-0.011527
C97	C	1.333410	-0.180120	-0.511544
C98	C	1.833410	0.319880	-0.011544
C99	C	1.418830	-0.553250	-0.993326
C100	C	1.918830	-0.053250	-0.493326
C101	C	1.413361	-0.548223	-0.898795
C102	C	1.913361	-0.048223	-0.398795
C103	C	1.297632	-0.440916	-0.892120
C104	C	1.797632	0.059084	-0.392120
C105	C	1.303101	-0.445943	-0.986651
C106	C	1.803101	0.054057	-0.486651
C107	C	1.363703	-0.502111	-1.037251
C108	C	1.863703	-0.002111	-0.537251
C109	C	1.369176	-0.507134	-1.131784
C110	C	1.869176	-0.007134	-0.631784
C111	C	1.253442	-0.399831	-1.125106
C112	C	1.753442	0.100169	-0.625106
C113	C	1.247974	-0.394804	-1.030575
C114	C	1.747974	0.105196	-0.530575
C115	C	1.319694	-0.461562	-0.276313
C116	C	1.819694	0.038438	0.223687
C117	C	1.314042	-0.455993	-0.175714
C118	C	1.814042	0.044007	0.324286
H119	H	0.856329	-0.599247	-0.646124
H120	H	1.356329	-0.099247	-0.146124
C121	C	1.448028	-1.184245	-0.397094
C122	C	1.948028	-0.684245	0.102906
N123	N	1.493260	-1.218447	-0.351939
N124	N	1.993260	-0.718447	0.148061
H125	H	1.179744	-1.048626	-0.664902
H126	H	1.679744	-0.548626	-0.164902
H127	H	0.684841	-0.590085	-0.636278
H128	H	1.184841	-0.090085	-0.136278
H129	H	0.672660	-0.395223	-0.426579
H130	H	1.172660	0.104777	0.073421
H131	H	0.982618	-0.358253	-0.386775
H132	H	1.482618	0.141747	0.113225
C133	C	1.502554	-1.060419	-0.342572
C134	C	2.002554	-0.560419	0.157428
N135	N	1.547780	-1.094623	-0.297413
N136	N	2.047780	-0.594623	0.202587
C137	C	1.181325	-0.333014	-0.974905
C138	C	1.681325	0.166986	-0.474905
N139	N	1.131129	-0.286468	-0.932976
N140	N	1.631129	0.213532	-0.432976
C141	C	0.796641	-0.333027	-0.359634
C142	C	1.296641	0.166973	0.140366
N143	N	0.754700	-0.286443	-0.309499
N144	N	1.254700	0.213557	0.190501
C145	C	1.218610	-0.763233	-0.625953
C146	C	1.718610	-0.263233	-0.125953
N147	N	1.173377	-0.729042	-0.671117
N148	N	1.673377	-0.229042	-0.171117
H149	H	1.179672	-0.898844	-0.664879
H150	H	1.679672	-0.398844	-0.164879
C151	C	1.218780	-1.184248	-0.625991
C152	C	1.718780	-0.684248	-0.125991
N153	N	1.173566	-1.218447	-0.671147
N154	N	1.673566	-0.718447	-0.171147
H155	H	1.486911	-0.898857	-0.358126
H156	H	1.986911	-0.398857	0.141874
H157	H	1.432266	-0.775028	-0.412614
H158	H	1.932266	-0.275028	0.087386
C159	C	1.230986	-0.379126	-0.836444
C160	C	1.730986	0.120874	-0.336444
N161	N	1.180794	-0.332581	-0.794509
N162	N	1.680794	0.167419	-0.294509
H163	H	1.418523	-0.552867	-1.172981
H164	H	1.918523	-0.052867	-0.672981
C165	C	1.485496	-0.615032	-1.048988
C166	C	1.985496	-0.115032	-0.548988
N167	N	1.535709	-0.661568	-1.090912
N168	N	2.035709	-0.161568	-0.590912
C169	C	1.474018	-0.604470	-0.850482
C170	C	1.974018	-0.104470	-0.350482
N171	N	1.519711	-0.646835	-0.814094
N172	N	2.019711	-0.146835	-0.314094
C173	C	1.009235	-0.569184	-0.613773
C174	C	1.509235	-0.069184	-0.113773
N175	N	1.051166	-0.615770	-0.663914
N176	N	1.551166	-0.115770	-0.163914
C177	C	1.192797	-0.343575	-1.173431
C178	C	1.692797	0.156425	-0.673431
N179	N	1.147122	-0.301204	-1.209829
N180	N	1.647122	0.198796	-0.709829
