data_functionalizedCrystal
_audit_creation_method	'MofGen! by Chris Wilmer'
_symmetry_space_group_name_H-M	'P1'
_symmetry_Int_Tables_number	1
_symmetry_cell_setting	triclinic
loop_
_symmetry_equiv_pos_as_xyz
  x,y,z
_cell_length_a	13.897449
_cell_length_b	12.827892
_cell_length_c	12.827885
_cell_angle_alpha	90.029786
_cell_angle_beta	90.022760
_cell_angle_gamma	90.016219
loop_
_atom_site_label
_atom_site_type_symbol
_atom_site_fract_x
_atom_site_fract_y
_atom_site_fract_z
Zn1	Zn	1.474712	-0.415959	0.590946
Zn2	Zn	1.974712	0.084041	1.090946
Zn3	Zn	1.474614	-0.590737	0.416206
Zn4	Zn	1.974614	-0.090737	0.916206
Zn5	Zn	1.313403	-0.416013	0.416209
Zn6	Zn	1.813403	0.083987	0.916209
Zn7	Zn	1.313389	-0.590662	0.590896
Zn8	Zn	1.813389	-0.090662	1.090896
O9	O	1.394030	-0.503343	0.503564
O10	O	1.894030	-0.003343	1.003564
O11	O	1.609681	-0.439153	0.567786
O12	O	2.109681	0.060847	1.067786
O13	O	1.453194	-0.567613	0.269970
O14	O	1.953194	-0.067613	0.769970
O15	O	1.334848	-0.269770	0.439410
O16	O	1.834848	0.230230	0.939410
O17	O	1.609609	-0.567561	0.439406
O18	O	2.109609	-0.067561	0.939406
O19	O	1.453361	-0.269730	0.567789
O20	O	1.953361	0.230270	1.067789
O21	O	1.334753	-0.439244	0.269972
O22	O	1.834753	0.060756	0.769972
O23	O	1.178420	-0.439171	0.439362
O24	O	1.678420	0.060829	0.939362
O25	O	1.334824	-0.567433	0.737138
O26	O	1.834824	-0.067433	1.237138
O27	O	1.178410	-0.567485	0.567703
O28	O	1.678410	-0.067485	1.067703
O29	O	1.453347	-0.439080	0.737175
O30	O	1.953347	0.060920	1.237175
O31	O	1.453181	-0.736963	0.439357
O32	O	1.953181	-0.236963	0.939357
O33	O	1.334730	-0.736908	0.567700
O34	O	1.834730	-0.236908	1.067700
C35	C	1.393969	-0.774853	0.503546
C36	C	1.893969	-0.274853	1.003546
C37	C	1.394032	-0.891006	0.503573
C38	C	1.894032	-0.391006	1.003573
C39	C	1.143415	-0.503327	0.503528
C40	C	1.643415	-0.003327	1.003528
C41	C	1.036201	-0.503345	0.503537
C42	C	1.536201	-0.003345	1.003537
C43	C	1.452715	-0.942783	0.440135
C44	C	1.952715	-0.442783	0.940135
C45	C	1.452781	-1.062833	0.440161
C46	C	1.952781	-0.562833	0.940161
C47	C	0.949132	-0.503348	0.503554
C48	C	1.449132	-0.003348	1.003554
C49	C	0.839899	-0.503356	0.503586
C50	C	1.339899	-0.003356	1.003586
C51	C	1.645623	-0.503359	0.503601
C52	C	2.145623	-0.003359	1.003601
C53	C	1.752837	-0.503367	0.503617
C54	C	2.252837	-0.003367	1.003617
C55	C	1.394095	-0.503242	0.776135
C56	C	1.894095	-0.003242	1.276135
C57	C	1.394123	-0.503199	0.892288
C58	C	1.894123	-0.003199	1.392288
C59	C	1.394117	-0.230772	0.503606
C60	C	1.894117	0.269228	1.003606
C61	C	1.394154	-0.114619	0.503623
C62	C	1.894154	0.385381	1.003623
C63	C	1.394020	-0.503367	0.232054
C64	C	1.894020	-0.003367	0.732054
C65	C	1.394179	-0.503116	0.115902
C66	C	1.894179	-0.003116	0.615902
C67	C	1.452779	-0.439674	0.944091
C68	C	1.952779	0.060326	1.444091
C69	C	1.452809	-0.439628	1.064141
C70	C	1.952809	0.060372	1.564141
H71	H	1.502911	-0.898237	0.385807
H72	H	2.002911	-0.398237	0.885807
Cl73	Cl	1.316573	-1.045885	0.587478
Cl74	Cl	1.816573	-0.545885	1.087478
Cl75	Cl	1.316540	-0.959776	0.587466
Cl76	Cl	1.816540	-0.459776	1.087466
Cl77	Cl	1.530348	-1.131574	0.356298
Cl78	Cl	2.030348	-0.631574	0.856298
Cl79	Cl	1.530350	-0.355661	1.132916
Cl80	Cl	2.030350	0.144339	1.632916
Cl81	Cl	1.530255	-0.355727	0.875355
Cl82	Cl	2.030255	0.144273	1.375355
H83	H	1.343963	-0.557509	1.071359
H84	H	1.843963	-0.057509	1.571359
Cl85	Cl	1.316617	-0.587115	0.961024
Cl86	Cl	1.816617	-0.087115	1.461024
