data_functionalizedCrystal
_audit_creation_method	'MofGen! by Chris Wilmer'
_symmetry_space_group_name_H-M	'P1'
_symmetry_Int_Tables_number	1
_symmetry_cell_setting	triclinic
loop_
_symmetry_equiv_pos_as_xyz
  x,y,z
_cell_length_a	8.597340
_cell_length_b	17.038272
_cell_length_c	7.088929
_cell_angle_alpha	83.325468
_cell_angle_beta	103.954719
_cell_angle_gamma	88.193829
loop_
_atom_site_label
_atom_site_type_symbol
_atom_site_fract_x
_atom_site_fract_y
_atom_site_fract_z
O1	O	2.115945	0.107367	0.189570
O2	O	1.652995	0.120129	0.113304
O3	O	1.881720	-0.000066	0.150999
O4	O	1.887220	0.227563	0.151875
O5	O	1.912282	-0.016165	0.474011
O6	O	1.683557	0.104030	0.436316
O7	O	2.146507	0.091268	0.512582
Cu8	Cu	1.917823	0.096179	0.503943
Cu9	Cu	1.881680	0.115218	0.121944
O10	O	1.917782	0.211464	0.474887
C11	C	1.608749	0.111606	0.265004
C12	C	1.431374	0.110185	0.235784
C13	C	1.891996	-0.037241	0.311681
C14	C	1.877064	-0.124026	0.309220
C15	C	2.014161	-0.174217	0.331807
C16	C	2.000119	-0.255758	0.329476
C17	C	1.848980	-0.287109	0.304571
C18	C	1.711872	-0.236911	0.281976
C19	C	1.725914	-0.155370	0.284294
C20	C	1.799371	-0.532838	0.296372
C21	C	1.785340	-0.614385	0.294062
C22	C	2.073588	-0.633226	0.341558
C23	C	2.087618	-0.551684	0.343886
C24	C	1.950509	-0.501493	0.321281
C25	C	1.834624	-0.370458	0.302193
C26	C	1.964865	-0.418145	0.323644
C27	C	2.190753	0.099792	0.360878
C28	C	2.368126	0.101213	0.390086
C29	C	1.907506	0.248639	0.314201
C30	C	1.922437	0.335424	0.316649
N31	N	1.943255	0.082787	0.772622
N32	N	1.856259	0.128604	-0.146734
H33	H	1.449675	0.094613	0.544552
H34	H	1.766097	0.176083	0.756761
H35	H	1.349817	0.116780	0.081307
H36	H	2.033436	0.035311	0.869140
H37	H	2.137236	-0.148699	0.352100
C38	C	2.286449	-0.266194	0.376702
C39	C	2.150824	-0.310929	0.354327
H40	H	2.379491	-0.300256	0.392057
H41	H	2.275286	-0.228383	0.263985
H42	H	2.296563	-0.239613	0.489262
H43	H	2.140704	-0.337506	0.241757
H44	H	2.161989	-0.348754	0.467055
H45	H	2.087918	-0.392614	0.343879
H46	H	1.588810	-0.262442	0.261686
H47	H	2.210691	-0.526165	0.364166
H48	H	2.185214	-0.674100	0.359958
C49	C	1.519628	-0.615166	0.086780
C50	C	1.619198	-0.648851	0.266661
H51	H	1.417071	-0.636450	0.069864
H52	H	1.508355	-0.559428	0.084934
H53	H	1.565923	-0.626787	-0.016455
H54	H	1.572908	-0.637224	0.369897
H55	H	1.630466	-0.704602	0.268523
C56	C	1.632202	-0.421944	0.105356
C57	C	1.648657	-0.477680	0.271533
H58	H	1.539144	-0.387894	0.090018
H59	H	1.724203	-0.391600	0.120527
H60	H	1.622072	-0.448540	-0.007182
H61	H	1.658799	-0.451083	0.384074
H62	H	1.556633	-0.508027	0.256376
H63	H	1.614274	-0.114505	0.265900
H64	H	1.711566	-0.395992	0.281920
