data_functionalizedCrystal
_audit_creation_method	'MofGen! by Chris Wilmer'
_symmetry_space_group_name_H-M	'P1'
_symmetry_Int_Tables_number	1
_symmetry_cell_setting	triclinic
loop_
_symmetry_equiv_pos_as_xyz
  x,y,z
_cell_length_a	14.853567
_cell_length_b	14.853567
_cell_length_c	9.130313
_cell_angle_alpha	90.002541
_cell_angle_beta	90.002734
_cell_angle_gamma	83.634930
loop_
_atom_site_label
_atom_site_type_symbol
_atom_site_fract_x
_atom_site_fract_y
_atom_site_fract_z
O1	O	1.196360	0.117700	-0.121686
O2	O	0.933900	0.131722	-0.121709
O3	O	1.072141	-0.006519	-0.121701
O4	O	1.058119	0.255941	-0.121694
O5	O	1.072139	-0.006515	0.121898
O6	O	0.933898	0.131725	0.121890
O7	O	1.196358	0.117704	0.121913
Cu8	Cu	1.065128	0.124715	0.144144
Cu9	Cu	1.065130	0.124711	-0.143940
O10	O	1.058117	0.255944	0.121905
C11	C	0.900311	0.131088	0.000087
C12	C	0.800227	0.129184	0.000077
C13	C	1.071504	-0.040106	0.000094
C14	C	1.069601	-0.140189	0.000081
C15	C	0.387693	0.039019	0.000107
C16	C	0.366412	0.203251	0.000111
C17	C	0.460446	0.205042	0.000106
C18	C	0.518108	0.123819	0.000100
C19	C	0.481736	0.040806	0.000098
C20	C	0.496825	0.288053	0.000093
C21	C	0.590864	0.289846	0.000087
C22	C	0.648528	0.208623	0.000091
C23	C	0.612150	0.125607	0.000091
C24	C	0.669812	0.044384	0.000085
C25	C	0.633437	-0.038633	0.000095
C26	C	0.539399	-0.040417	0.000103
C27	C	0.742565	0.210407	0.000084
C28	C	0.763855	0.046172	0.000076
C29	C	0.979435	-0.552723	0.000101
C30	C	1.143668	-0.574004	0.000115
C31	C	1.145458	-0.479971	0.000107
C32	C	1.064235	-0.422309	0.000098
C33	C	0.981223	-0.458680	0.000097
C34	C	1.228469	-0.443591	0.000123
C35	C	1.230262	-0.349552	0.000116
C36	C	1.149039	-0.291889	0.000096
C37	C	1.066023	-0.328266	0.000093
C38	C	0.984800	-0.270604	0.000084
C39	C	0.901783	-0.306979	0.000071
C40	C	0.899999	-0.401017	0.000077
C41	C	1.150823	-0.197851	0.000090
C42	C	0.986588	-0.176561	0.000080
C43	C	1.229947	0.118337	0.000114
C44	C	1.330031	0.120241	0.000114
C45	C	1.058754	0.289531	0.000107
C46	C	1.060657	0.389615	0.000110
N47	N	1.065133	0.124717	0.346767
N48	N	1.065132	0.124701	-0.346563
C49	C	1.126362	0.063525	0.423422
C50	C	1.126359	0.063514	0.576759
C51	C	1.003897	0.185896	0.576771
C52	C	1.003896	0.185902	0.423437
C53	C	1.187599	0.002341	0.346751
C54	C	1.248833	-0.058855	0.423407
C55	C	1.248831	-0.058866	0.576744
C56	C	1.187594	0.002319	0.653425
H57	H	0.810798	-0.019971	0.000076
O58	O	0.695631	-0.126238	0.000099
H59	H	0.767130	-0.111041	0.000098
H60	H	0.920445	-0.129618	0.000066
H61	H	1.297860	-0.319944	0.000124
H62	H	0.832411	-0.430643	0.000068
O63	O	0.630089	0.379384	0.000110
H64	H	0.606929	0.418426	-0.099163
O65	O	0.500169	-0.129952	0.000107
H66	H	0.425092	-0.117547	0.000097
H67	H	1.187591	0.002299	0.778282
H68	H	0.911844	-0.582344	0.000084
H69	H	0.449870	0.354180	0.000083
H70	H	1.218414	-0.168238	0.000110
H71	H	0.954041	0.235712	0.639215
H72	H	0.954037	0.235729	0.361024
H73	H	1.187608	0.002346	0.221897
O74	O	1.314858	-0.124869	0.340715
H75	H	1.304573	-0.114584	0.221213
H76	H	0.358072	-0.028572	0.000122
H77	H	0.772178	0.277998	0.000077
O78	O	0.304227	0.290854	0.000133
H79	H	0.232726	0.275665	0.000151
H80	H	0.835652	-0.260019	0.000074
H81	H	1.209795	-0.620958	0.000135
O82	O	1.316070	-0.505778	0.000154
H83	H	1.300878	-0.577279	0.000142
O84	O	1.314877	-0.124859	0.659431
H85	H	1.357463	-0.167393	0.580351
