data_functionalizedCrystal
_audit_creation_method	'MofGen! by Chris Wilmer'
_symmetry_space_group_name_H-M	'P1'
_symmetry_Int_Tables_number	1
_symmetry_cell_setting	triclinic
loop_
_symmetry_equiv_pos_as_xyz
  x,y,z
_cell_length_a	23.532407
_cell_length_b	23.532407
_cell_length_c	7.540329
_cell_angle_alpha	90.009623
_cell_angle_beta	89.995532
_cell_angle_gamma	82.848678
loop_
_atom_site_label
_atom_site_type_symbol
_atom_site_fract_x
_atom_site_fract_y
_atom_site_fract_z
O1	O	0.755256	0.069135	0.147279
O2	O	1.255256	0.569135	0.647279
O3	O	0.589393	0.079139	0.147334
O4	O	1.089393	0.579139	0.647334
O5	O	0.677326	-0.008795	0.147272
O6	O	1.177326	0.491205	0.647272
O7	O	0.667323	0.157069	0.147340
O8	O	1.167323	0.657069	0.647340
O9	O	0.677325	-0.008799	-0.147693
O10	O	1.177325	0.491201	0.352307
O11	O	0.589392	0.079135	-0.147632
O12	O	1.089392	0.579135	0.352368
O13	O	0.755255	0.069132	-0.147686
O14	O	1.255255	0.569132	0.352314
Cu15	Cu	0.672323	0.074133	-0.174591
Cu16	Cu	1.172323	0.574133	0.325409
Cu17	Cu	0.672325	0.074137	0.174239
Cu18	Cu	1.172325	0.574137	0.674239
O19	O	0.667322	0.157065	-0.147625
O20	O	1.167322	0.657065	0.352375
C21	C	0.568176	0.078882	-0.000142
C22	C	1.068176	0.578882	0.499858
C23	C	0.504959	0.078116	-0.000123
C24	C	1.004959	0.578116	0.499877
C25	C	0.105856	0.125350	-0.000184
C26	C	0.605856	0.625350	0.499816
C27	C	0.046456	0.124638	-0.000195
C28	C	0.546456	0.624638	0.499805
O29	O	0.009711	0.168424	-0.000241
O30	O	0.509711	0.668424	0.499759
N31	N	0.023830	0.072362	-0.000214
N32	N	0.523830	0.572362	0.499786
C33	C	0.060607	0.020794	-0.000239
C34	C	0.560607	0.520794	0.499761
O35	O	0.035908	-0.023737	-0.000258
O36	O	0.535908	0.476263	0.499742
C37	C	0.120006	0.021506	-0.000241
C38	C	0.620006	0.521506	0.499759
C39	C	0.142629	0.073785	-0.000204
C40	C	0.642629	0.573785	0.499796
C41	C	0.128479	0.177625	-0.000149
C42	C	0.628479	0.677625	0.499851
C43	C	0.187876	0.178336	-0.000135
C44	C	0.687876	0.678336	0.499865
C45	C	0.224649	0.126772	-0.000155
C46	C	0.724649	0.626772	0.499845
C47	C	0.202025	0.074496	-0.000190
C48	C	0.702025	0.574496	0.499810
C49	C	0.156783	-0.030062	-0.000279
C50	C	0.656783	0.469938	0.499721
C51	C	0.216185	-0.029345	-0.000282
C52	C	0.716185	0.470655	0.499718
C53	C	0.238808	0.022934	-0.000245
C54	C	0.738808	0.522934	0.499755
C55	C	0.298194	0.023643	-0.000195
C56	C	0.798194	0.523643	0.499805
N57	N	0.320820	0.075920	-0.000177
N58	N	0.820820	0.575920	0.499823
C59	C	0.284048	0.127484	-0.000157
C60	C	0.784048	0.627484	0.499843
C61	C	-0.064135	0.019302	-0.000239
C62	C	0.435865	0.519302	0.499761
C63	C	-0.123533	0.018589	-0.000225
C64	C	0.376467	0.518589	0.499775
C65	C	-0.137680	0.122434	-0.000184
C66	C	0.362320	0.622434	0.499816
C67	C	-0.078281	0.123146	-0.000186
C68	C	0.421719	0.623146	0.499814
C69	C	-0.041509	0.071578	-0.000220
C70	C	0.458491	0.571578	0.499780
C71	C	0.408784	0.128974	-0.000125
C72	C	0.908784	0.628974	0.499875
C73	C	0.468186	0.129680	-0.000103
C74	C	0.968186	0.629680	0.499897
C75	C	0.482329	0.025836	-0.000153
C76	C	0.982329	0.525836	0.499847
C77	C	0.422932	0.025129	-0.000165
C78	C	0.922932	0.525129	0.499835
C79	C	0.386160	0.076702	-0.000157
C80	C	0.886160	0.576702	0.499843
O81	O	0.334974	-0.020119	-0.000156
O82	O	0.834974	0.479881	0.499844
O83	O	0.308755	0.172007	-0.000161
O84	O	0.808755	0.672007	0.499839
C85	C	0.677071	-0.030013	-0.000215
C86	C	1.177071	0.469987	0.499785
C87	C	0.676305	-0.093230	-0.000228
C88	C	1.176305	0.406770	0.499772
C89	C	0.723539	-0.492333	-0.000147
C90	C	1.223539	0.007667	0.499853
C91	C	0.722827	-0.551733	-0.000133
C92	C	1.222827	-0.051733	0.499867
O93	O	0.766613	-0.588478	-0.000082
O94	O	1.266613	-0.088478	0.499918
N95	N	0.670551	-0.574359	-0.000117
N96	N	1.170551	-0.074359	0.499883
C97	C	0.618983	-0.537582	-0.000097
C98	C	1.118983	-0.037582	0.499903
O99	O	0.574452	-0.562281	-0.000080
O100	O	1.074452	-0.062281	0.499920
C101	C	0.619695	-0.478182	-0.000098
C102	C	1.119695	0.021818	0.499902
C103	C	0.671974	-0.455560	-0.000132
C104	C	1.171974	0.044440	0.499868
C105	C	0.775814	-0.469710	-0.000179
C106	C	1.275814	0.030290	0.499821
C107	C	0.776525	-0.410313	-0.000196
C108	C	1.276525	0.089687	0.499804
C109	C	0.724961	-0.373540	-0.000181
C110	C	1.224961	0.126460	0.499819
C111	C	0.672685	-0.396164	-0.000149
C112	C	1.172685	0.103836	0.499851
C113	C	0.568127	-0.441406	-0.000065
C114	C	1.068127	0.058594	0.499935
C115	C	0.568844	-0.382004	-0.000064
C116	C	1.068844	0.117996	0.499936
C117	C	0.621123	-0.359381	-0.000098
C118	C	1.121123	0.140619	0.499902
C119	C	0.621832	-0.299995	-0.000151
C120	C	1.121832	0.200005	0.499849
N121	N	0.674109	-0.277368	-0.000167
N122	N	1.174109	0.222632	0.499833
C123	C	0.725673	-0.314141	-0.000182
C124	C	1.225673	0.185859	0.499818
C125	C	0.617491	-0.662324	-0.000091
C126	C	1.117491	-0.162324	0.499909
C127	C	0.616778	-0.721722	-0.000103
C128	C	1.116778	-0.221722	0.499897
C129	C	0.720623	-0.735869	-0.000136
C130	C	1.220623	-0.235869	0.499864
C131	C	0.721335	-0.676470	-0.000137
C132	C	1.221335	-0.176470	0.499863
C133	C	0.669767	-0.639698	-0.000107
C134	C	1.169767	-0.139698	0.499893
C135	C	0.727163	-0.189405	-0.000219
C136	C	1.227163	0.310595	0.499781
C137	C	0.727869	-0.130003	-0.000243
C138	C	1.227869	0.369997	0.499757
C139	C	0.624025	-0.115860	-0.000201
C140	C	1.124025	0.384140	0.499799
C141	C	0.623318	-0.175257	-0.000186
C142	C	1.123318	0.324743	0.499814
C143	C	0.674891	-0.212029	-0.000189
C144	C	1.174891	0.287971	0.499811
O145	O	0.578070	-0.263215	-0.000194
O146	O	1.078070	0.236785	0.499806
O147	O	0.770196	-0.289433	-0.000175
O148	O	1.270196	0.210567	0.499825
C149	C	0.776472	0.069388	-0.000206
C150	C	1.276472	0.569388	0.499794
C151	C	0.839689	0.070154	-0.000214
C152	C	1.339689	0.570154	0.499786
C153	C	0.667577	0.178283	-0.000134
C154	C	1.167577	0.678283	0.499866
C155	C	0.668343	0.241500	-0.000109
C156	C	1.168343	0.741500	0.499891
N157	N	0.672326	0.074136	0.419587
N158	N	1.172326	0.574136	0.919587
N159	N	0.672326	0.074129	-0.419940
N160	N	1.172326	0.574129	0.080060
H161	H	0.486602	0.172255	-0.000072
H162	H	0.986602	0.672255	0.499928
H163	H	-0.034198	-0.022693	-0.000252
H164	H	0.465802	0.477307	0.499748
H165	H	0.574207	-0.740136	-0.000106
H166	H	1.074207	-0.240136	0.499894
H167	H	0.512280	-0.016146	-0.000163
H168	H	1.012280	0.483854	0.499837
H169	H	0.819097	-0.391900	-0.000216
H170	H	1.319097	0.108100	0.499784
H171	H	0.378852	0.170970	-0.000124
H172	H	0.878852	0.670970	0.499876
H173	H	0.575496	-0.632386	-0.000083
H174	H	1.075496	-0.132386	0.499917
C175	C	0.777344	-0.776327	-0.000119
C176	C	1.277344	-0.276327	0.499881
H177	H	0.769428	-0.814942	-0.000090
H178	H	1.269428	-0.314942	0.499910
H179	H	0.798801	-0.769514	-0.102979
H180	H	1.298801	-0.269514	0.397021
H181	H	0.798789	-0.769492	0.102756
H182	H	1.298789	-0.269492	0.602756
H183	H	0.769159	-0.219337	-0.000214
H184	H	1.269159	0.280663	0.499786
C185	C	0.832540	-0.510151	-0.000209
C186	C	1.332540	-0.010151	0.499791
H187	H	0.863770	-0.488162	-0.000242
H188	H	1.363770	0.011838	0.499758
H189	H	0.834431	-0.533615	0.102644
H190	H	1.334431	-0.033615	0.602644
H191	H	0.834420	-0.533619	-0.103091
H192	H	1.334420	-0.033619	0.396909
C193	C	0.778842	-0.651591	-0.000158
C194	C	1.278842	-0.151591	0.499842
H195	H	0.809447	-0.682003	-0.000157
H196	H	1.309447	-0.182003	0.499843
H197	H	0.781281	-0.628717	-0.103015
H198	H	1.281281	-0.128717	0.396985
H199	H	0.781281	-0.628711	0.102720
H200	H	1.281281	-0.128711	0.602720
C201	C	-0.148414	-0.038916	-0.000233
C202	C	0.351586	0.461084	0.499767
H203	H	-0.189057	-0.031961	-0.000221
H204	H	0.310943	0.468039	0.499779
H205	H	-0.135766	-0.060137	-0.103096
H206	H	0.364234	0.439863	0.396904
H207	H	-0.135774	-0.060127	0.102639
H208	H	0.364226	0.439873	0.602639
H209	H	0.206289	0.220908	-0.000104
H210	H	0.706289	0.720908	0.499896
C211	C	0.567307	-0.075406	-0.000173
C212	C	1.067307	0.424594	0.499827
H213	H	0.536068	-0.097383	-0.000162
H214	H	1.036068	0.402617	0.499838
H215	H	0.565434	-0.051934	0.102687
H216	H	1.065434	0.448066	0.602687
H217	H	0.565425	-0.051946	-0.103047
H218	H	1.065425	0.448054	0.396953
H219	H	0.525555	-0.459814	-0.000026
H220	H	1.025555	0.040186	0.499974
H221	H	0.098544	0.219617	-0.000139
H222	H	0.598544	0.719617	0.499861
H223	H	0.138375	-0.072634	-0.000310
H224	H	0.638375	0.427366	0.499690
H225	H	0.526850	-0.352066	-0.000038
H226	H	1.026850	0.147934	0.499962
C227	C	-0.053402	0.180653	-0.000161
C228	C	0.446598	0.680653	0.499839
H229	H	-0.083814	0.211258	-0.000157
H230	H	0.416186	0.711258	0.499843
H231	H	-0.030525	0.183094	0.102695
H232	H	0.469475	0.683094	0.602695
H233	H	-0.030525	0.183090	-0.103039
H234	H	0.469475	0.683090	0.396961
H235	H	0.580748	-0.193677	-0.000208
H236	H	1.080748	0.306323	0.499792
H237	H	0.404512	-0.017441	-0.000169
H238	H	0.904512	0.482559	0.499831
C239	C	-0.178136	0.179156	-0.000175
C240	C	0.321864	0.679156	0.499825
H241	H	-0.156159	0.210396	-0.000148
H242	H	0.343841	0.710396	0.499852
H243	H	-0.201598	0.181031	-0.103037
H244	H	0.298402	0.681031	0.396963
H245	H	-0.201605	0.181036	0.102697
H246	H	0.298395	0.681036	0.602697
C247	C	0.785379	-0.105121	-0.000270
C248	C	1.285379	0.394879	0.499730
H249	H	0.815986	-0.135532	-0.000257
H250	H	1.315986	0.364468	0.499743
H251	H	0.787818	-0.082252	-0.103135
H252	H	1.287818	0.417748	0.396865
H253	H	0.787815	-0.082237	0.102599
H254	H	1.287815	0.417763	0.602599
C255	C	0.256632	-0.086072	-0.000300
C256	C	0.756632	0.413928	0.499700
H257	H	0.234647	-0.117306	-0.000305
H258	H	0.734647	0.382694	0.499695
H259	H	0.280105	-0.087957	-0.103152
H260	H	0.780105	0.412043	0.396848
H261	H	0.280090	-0.087951	0.102583
H262	H	0.780090	0.412049	0.602583
