data_functionalizedCrystal
_audit_creation_method	'MofGen! by Chris Wilmer'
_symmetry_space_group_name_H-M	'P1'
_symmetry_Int_Tables_number	1
_symmetry_cell_setting	triclinic
loop_
_symmetry_equiv_pos_as_xyz
  x,y,z
_cell_length_a	12.645330
_cell_length_b	12.645331
_cell_length_c	12.759393
_cell_angle_alpha	89.985103
_cell_angle_beta	89.969902
_cell_angle_gamma	90.016927
loop_
_atom_site_label
_atom_site_type_symbol
_atom_site_fract_x
_atom_site_fract_y
_atom_site_fract_z
Zn1	Zn	-0.421998	1.620722	-0.593893
Zn2	Zn	0.078002	2.120722	-0.093893
Zn3	Zn	-0.599302	1.620607	-0.418218
Zn4	Zn	-0.099302	2.120607	0.081782
Zn5	Zn	-0.422051	1.443440	-0.418243
Zn6	Zn	0.077949	1.943440	0.081757
Zn7	Zn	-0.599218	1.443419	-0.593870
Zn8	Zn	-0.099218	1.943419	-0.093870
O9	O	-0.510642	1.532047	-0.506056
O10	O	-0.010642	2.032047	-0.006056
O11	O	-0.445531	1.769054	-0.570588
O12	O	0.054469	2.269054	-0.070588
O13	O	-0.575847	1.597065	-0.271200
O14	O	-0.075847	2.097065	0.228800
O15	O	-0.273697	1.467014	-0.441564
O16	O	0.226303	1.967014	0.058436
O17	O	-0.575796	1.768969	-0.441520
O18	O	-0.075796	2.268969	0.058480
O19	O	-0.273658	1.597263	-0.570613
O20	O	0.226342	2.097263	-0.070613
O21	O	-0.445621	1.466901	-0.271219
O22	O	0.054379	1.966901	0.228781
O23	O	-0.445539	1.295090	-0.441541
O24	O	0.054461	1.795090	0.058459
O25	O	-0.575651	1.466978	-0.740894
O26	O	-0.075651	1.966978	-0.240894
O27	O	-0.575703	1.295074	-0.570574
O28	O	-0.075703	1.795074	-0.070574
O29	O	-0.445449	1.597242	-0.740911
O30	O	0.054551	2.097242	-0.240911
O31	O	-0.747638	1.597045	-0.441498
O32	O	-0.247638	2.097045	0.058502
O33	O	-0.747576	1.466866	-0.570549
O34	O	-0.247576	1.966866	-0.070549
C35	C	-0.510618	1.256617	-0.506058
C36	C	-0.010618	1.756617	-0.006058
C37	C	-0.510633	1.138787	-0.506085
C38	C	-0.010633	1.638787	-0.006085
C39	C	-0.592968	0.971249	-0.586835
C40	C	-0.092968	1.471249	-0.086835
C41	C	-0.592703	1.093809	-0.587173
C42	C	-0.092703	1.593809	-0.087173
C43	C	-0.398976	1.094309	-0.536333
C44	C	0.101024	1.594309	-0.036333
C45	C	-0.399478	0.971710	-0.536902
C46	C	0.100522	1.471710	-0.036902
C47	C	-0.539057	0.971543	-0.394829
C48	C	-0.039057	1.471543	0.105171
C49	C	-0.541499	1.094149	-0.395429
C50	C	-0.041499	1.594149	0.104571
C51	C	-0.786072	1.531969	-0.506041
C52	C	-0.286072	2.031969	-0.006041
C53	C	-0.903902	1.532033	-0.506070
C54	C	-0.403902	2.032033	-0.006070
C55	C	-1.071471	1.450475	-0.587506
C56	C	-0.571471	1.950475	-0.087506
C57	C	-0.948911	1.450058	-0.587244
C58	C	-0.448911	1.950058	-0.087244
C59	C	-0.948506	1.501790	-0.395350
C60	C	-0.448506	2.001790	0.104650
C61	C	-1.071104	1.501292	-0.395845
C62	C	-0.571104	2.001292	0.104155
C63	C	-1.070990	1.644334	-0.534455
C64	C	-0.570990	2.144334	-0.034455
C65	C	-0.948383	1.643646	-0.536876
C66	C	-0.448383	2.143646	-0.036876
C67	C	-0.234137	1.532153	-0.506094
C68	C	0.265863	2.032153	-0.006094
C69	C	-0.116307	1.532199	-0.506110
C70	C	0.383693	2.032199	-0.006110
C71	C	-0.510535	1.532121	-0.780089
C72	C	-0.010535	2.032121	-0.280089
C73	C	-0.510489	1.532152	-0.896866
C74	C	-0.010489	2.032152	-0.396866
C75	C	-0.510667	1.808552	-0.506054
C76	C	-0.010667	2.308552	-0.006054
C77	C	-0.510678	1.926382	-0.506053
C78	C	-0.010678	2.426382	-0.006053
C79	C	-0.442668	1.464400	-0.951737
C80	C	0.057332	1.964400	-0.451737
C81	C	-0.442636	1.464425	-1.061461
C82	C	0.057364	1.964425	-0.561461
C83	C	-0.578248	1.599963	-1.061433
C84	C	-0.078248	2.099963	-0.561433
C85	C	-0.578285	1.599932	-0.951711
C86	C	-0.078285	2.099932	-0.451711
C87	C	-0.510672	1.532034	-0.233088
C88	C	-0.010672	2.032034	0.266912
C89	C	-0.510419	1.532208	-0.116312
C90	C	-0.010419	2.032208	0.383688
H91	H	-0.675503	1.123881	-0.568216
H92	H	-0.175503	1.623881	-0.068216
H93	H	-0.919354	1.559426	-0.333047
H94	H	-0.419354	2.059426	0.166953
H95	H	-1.101827	1.671923	-0.613819
H96	H	-0.601827	2.171923	-0.113819
H97	H	-0.917739	1.707740	-0.481908
H98	H	-0.417739	2.207740	0.018092
H99	H	-0.387465	1.409210	-0.907086
H100	H	0.112535	1.909210	-0.407086
H101	H	-0.387410	1.409254	-1.106133
H102	H	0.112590	1.909254	-0.606133
H103	H	-0.676043	0.941758	-0.568087
H104	H	-0.176043	1.441758	-0.068087
H105	H	-0.633444	1.655147	-1.106102
H106	H	-0.133444	2.155147	-0.606102
H107	H	-0.633517	1.655107	-0.907034
H108	H	-0.133517	2.155107	-0.407034
H109	H	-0.574429	0.940457	-0.668769
H110	H	-0.074429	1.440457	-0.168769
H111	H	-0.335996	1.123442	-0.479333
H112	H	0.164004	1.623442	0.020667
H113	H	-0.485911	1.124767	-0.332011
H114	H	0.014089	1.624767	0.167989
H115	H	-0.573920	1.123157	-0.669586
H116	H	-0.073920	1.623157	-0.169586
H117	H	-0.375408	0.943134	-0.618211
H118	H	0.124592	1.443134	-0.118211
H119	H	-0.374467	1.125032	-0.616762
H120	H	0.125533	1.625032	-0.116762
H121	H	-0.619090	0.940622	-0.367335
H122	H	-0.119090	1.440622	0.132665
H123	H	-0.919677	1.366926	-0.568466
H124	H	-0.419677	1.866926	-0.068466
H125	H	-1.100875	1.469224	-0.669874
H126	H	-0.600875	1.969224	-0.169874
H127	H	-0.335967	0.942030	-0.480761
H128	H	0.164033	1.442030	0.019239
H129	H	-0.917896	1.420672	-0.370902
H130	H	-0.417896	1.920672	0.129098
H131	H	-0.623662	1.123232	-0.372615
H132	H	-0.123662	1.623232	0.127385
H133	H	-0.479117	0.942527	-0.334638
H134	H	0.020883	1.442527	0.165362
H135	H	-1.102372	1.367863	-0.568968
H136	H	-0.602372	1.867863	-0.068968
H137	H	-0.918750	1.468980	-0.669343
H138	H	-0.418750	1.968980	-0.169343
H139	H	-1.100768	1.558233	-0.333130
H140	H	-0.600768	2.058233	0.166870
H141	H	-1.099797	1.419320	-0.371831
H142	H	-0.599797	1.919320	0.128169
H143	H	-0.919225	1.666454	-0.618360
H144	H	-0.419225	2.166454	-0.118360
H145	H	-1.099984	1.705220	-0.475171
H146	H	-0.599984	2.205220	0.024829
