data_functionalizedCrystal
_audit_creation_method	'MofGen! by Chris Wilmer'
_symmetry_space_group_name_H-M	'P1'
_symmetry_Int_Tables_number	1
_symmetry_cell_setting	triclinic
loop_
_symmetry_equiv_pos_as_xyz
  x,y,z
_cell_length_a	12.759401
_cell_length_b	12.827892
_cell_length_c	12.827885
_cell_angle_alpha	89.972922
_cell_angle_beta	90.019639
_cell_angle_gamma	89.981145
loop_
_atom_site_label
_atom_site_type_symbol
_atom_site_fract_x
_atom_site_fract_y
_atom_site_fract_z
Zn1	Zn	1.606234	0.415938	0.590875
Zn2	Zn	1.939567	0.749271	0.924208
Zn3	Zn	2.272900	1.082605	1.257541
Zn4	Zn	1.606121	0.590716	0.416144
Zn5	Zn	1.939454	0.924049	0.749477
Zn6	Zn	2.272787	1.257383	1.082810
Zn7	Zn	1.430536	0.415994	0.416148
Zn8	Zn	1.763870	0.749327	0.749481
Zn9	Zn	2.097203	1.082661	1.082814
Zn10	Zn	1.430516	0.590642	0.590843
Zn11	Zn	1.763850	0.923976	0.924177
Zn12	Zn	2.097183	1.257309	1.257510
O13	O	1.518352	0.503323	0.503502
O14	O	1.851685	0.836656	0.836836
O15	O	2.185018	1.169989	1.170169
O16	O	1.753240	0.439130	0.567708
O17	O	2.086573	0.772463	0.901041
O18	O	2.419906	1.105797	1.234374
O19	O	1.582790	0.567593	0.269908
O20	O	1.916124	0.900926	0.603242
O21	O	2.249457	1.234260	0.936575
O22	O	1.453899	0.269751	0.439340
O23	O	1.787232	0.603084	0.772674
O24	O	2.120565	0.936417	1.106007
O25	O	1.753157	0.567539	0.439334
O26	O	2.086490	0.900872	0.772667
O27	O	2.419823	1.234205	1.106000
O28	O	1.582983	0.269709	0.567712
O29	O	1.916316	0.603043	0.901045
O30	O	2.249649	0.936376	1.234378
O31	O	1.453789	0.439226	0.269911
O32	O	1.787123	0.772559	0.603244
O33	O	2.120456	1.105892	0.936578
O34	O	1.283513	0.439154	0.439310
O35	O	1.616846	0.772488	0.772643
O36	O	1.950179	1.105821	1.105977
O37	O	1.453864	0.567413	0.737084
O38	O	1.787198	0.900746	1.070417
O39	O	2.120531	1.234080	1.403750
O40	O	1.283498	0.567468	0.567658
O41	O	1.616831	0.900801	0.900991
O42	O	1.950165	1.234134	1.234325
O43	O	1.582963	0.439059	0.737107
O44	O	1.916297	0.772392	1.070440
O45	O	2.249630	1.105725	1.403773
O46	O	1.582771	0.736942	0.439303
O47	O	1.916104	1.070276	0.772637
O48	O	2.249437	1.403609	1.105970
O49	O	1.453755	0.736888	0.567654
O50	O	1.787088	1.070221	0.900988
O51	O	2.120422	1.403555	1.234321
C52	C	1.245384	0.503310	0.503482
C53	C	1.578718	0.836643	0.836815
C54	C	1.912051	1.169976	1.170148
C55	C	1.128608	0.503329	0.503498
C56	C	1.461941	0.836663	0.836831
C57	C	1.795274	1.169996	1.170164
C58	C	1.073766	0.570244	0.570223
C59	C	1.407099	0.903577	0.903557
C60	C	1.740432	1.236911	1.236890
C61	C	0.964042	0.570248	0.570244
C62	C	1.297375	0.903581	0.903577
C63	C	1.630708	1.236915	1.236911
C64	C	0.964011	0.436420	0.436804
C65	C	1.297345	0.769754	0.770138
C66	C	1.630678	1.103087	1.103471
C67	C	1.073734	0.436412	0.436790
C68	C	1.407067	0.769745	0.770123
C69	C	1.740400	1.103078	1.103456
C70	C	1.518277	0.774832	0.503498
C71	C	1.851610	1.108166	0.836831
C72	C	2.184944	1.441499	1.170164
C73	C	1.518341	0.890986	0.503531
C74	C	1.851674	1.224319	0.836864
C75	C	2.185008	1.557652	1.170197
C76	C	1.582256	0.942762	0.440092
C77	C	1.915589	1.276096	0.773425
C78	C	2.248923	1.609429	1.106758
C79	C	1.582324	1.062813	0.440124
C80	C	1.915657	1.396146	0.773458
C81	C	2.248990	1.729479	1.106791
C82	C	1.792385	0.503336	0.503524
C83	C	2.125718	0.836669	0.836857
C84	C	2.459052	1.170003	1.170190
C85	C	1.909162	0.503342	0.503533
C86	C	2.242495	0.836675	0.836866
C87	C	2.575828	1.170009	1.170200
C88	C	1.518424	0.503221	0.776073
C89	C	1.851758	0.836555	1.109406
C90	C	2.185091	1.169888	1.442739
C91	C	1.518455	0.503178	0.892226
C92	C	1.851788	0.836512	1.225559
C93	C	2.185122	1.169845	1.558893
C94	C	1.518447	1.230752	0.503543
C95	C	1.851780	1.564086	0.836876
C96	C	2.185114	1.897419	1.170209
C97	C	1.518466	1.114599	0.503592
C98	C	1.851799	1.447933	0.836926
C99	C	2.185133	1.781266	1.170259
C100	C	1.518340	0.503348	0.231992
C101	C	1.851673	0.836681	0.565326
C102	C	2.185007	1.170015	0.898659
C103	C	1.518513	0.503097	0.115840
C104	C	1.851846	0.836430	0.449173
C105	C	2.185179	1.169763	0.782506
C106	C	1.454593	0.566666	0.943999
C107	C	1.787927	0.900000	1.277333
C108	C	2.121260	1.233333	1.610666
C109	C	1.454624	0.566623	1.064050
C110	C	1.787957	0.899956	1.397383
C111	C	2.121290	1.233290	1.730716
H112	H	1.118387	0.381915	0.382454
H113	H	1.451721	0.715249	0.715787
H114	H	1.785054	1.048582	1.049120
F115	F	1.383152	0.637666	1.122242
F116	F	1.716486	0.970999	1.455575
F117	F	2.049819	1.304332	1.788908
F118	F	1.132163	0.641461	0.641222
F119	F	1.465497	0.974794	0.974556
F120	F	1.798830	1.308127	1.307889
H121	H	1.463675	0.935534	0.557871
H122	H	1.797009	1.268868	0.891205
H123	H	2.130342	1.602201	1.224538
F124	F	0.905679	0.641465	0.641265
F125	F	1.239013	0.974799	0.974598
F126	F	1.572346	1.308132	1.307931
H127	H	1.573185	0.448735	1.071323
H128	H	1.906519	0.782068	1.404656
H129	H	2.239852	1.115402	1.737989
F130	F	1.589956	0.432094	0.950453
F131	F	1.923289	0.765427	1.283786
F132	F	2.256623	1.098761	1.617119
F133	F	1.653844	1.121009	0.369126
F134	F	1.987178	1.454342	0.702459
F135	F	2.320511	1.787676	1.035793
F136	F	0.905601	0.365207	0.365812
F137	F	1.238935	0.698540	0.699145
F138	F	1.572268	1.031874	1.032478
H139	H	1.636931	0.898216	0.385758
H140	H	1.970264	1.231550	0.719091
H141	H	2.303598	1.564883	1.052425
H142	H	1.463738	1.070080	0.557904
H143	H	1.797072	1.403413	0.891237
H144	H	2.130405	1.736747	1.224571
H145	H	1.399900	0.621057	0.899447
H146	H	1.733234	0.954390	1.232781
H147	H	2.066567	1.287723	1.566114
