data_functionalizedCrystal
_audit_creation_method	'MofGen! by Chris Wilmer'
_symmetry_space_group_name_H-M	'P1'
_symmetry_Int_Tables_number	1
_symmetry_cell_setting	triclinic
loop_
_symmetry_equiv_pos_as_xyz
  x,y,z
_cell_length_a	12.645330
_cell_length_b	12.759395
_cell_length_c	12.759387
_cell_angle_alpha	90.022274
_cell_angle_beta	89.970586
_cell_angle_gamma	89.981744
loop_
_atom_site_label
_atom_site_type_symbol
_atom_site_fract_x
_atom_site_fract_y
_atom_site_fract_z
Zn1	Zn	-0.421967	-1.606247	-0.594065
Zn2	Zn	-0.599270	-1.606128	-0.418389
Zn3	Zn	-0.422022	-1.430545	-0.418396
Zn4	Zn	-0.599191	-1.430528	-0.594023
O5	O	-0.510613	-1.518362	-0.506218
O6	O	-0.445497	-1.753252	-0.570776
O7	O	-0.575813	-1.582794	-0.271369
O8	O	-0.273668	-1.453909	-0.441719
O9	O	-0.575760	-1.753165	-0.441708
O10	O	-0.273627	-1.582996	-0.570782
O11	O	-0.445590	-1.453794	-0.271374
O12	O	-0.445514	-1.283522	-0.441679
O13	O	-0.575626	-1.453880	-0.741050
O14	O	-0.575679	-1.283509	-0.570711
O15	O	-0.445421	-1.582980	-0.741080
O16	O	-0.747606	-1.582778	-0.441667
O17	O	-0.747549	-1.453765	-0.570705
C18	C	-0.510595	-1.245395	-0.506192
C19	C	-0.510613	-1.128618	-0.506205
C20	C	-0.786042	-1.518285	-0.506204
C21	C	-0.903872	-1.518349	-0.506232
C22	C	-0.646373	-1.128644	-0.640349
C23	C	-0.714261	-1.073796	-0.707423
C24	C	-0.714272	-0.964074	-0.707432
C25	C	-0.646386	-0.909198	-0.640363
C26	C	-0.578498	-0.964046	-0.573290
C27	C	-0.578497	-1.073770	-0.573286
C28	C	-0.442734	-0.964020	-0.439153
C29	C	-0.442727	-1.073742	-0.439137
C30	C	-0.374848	-0.909144	-0.372084
C31	C	-0.306964	-0.963992	-0.305004
C32	C	-0.306957	-1.073720	-0.304996
C33	C	-0.374839	-1.128590	-0.372063
C34	C	-1.071444	-1.437522	-0.587660
C35	C	-0.948885	-1.437108	-0.587398
C36	C	-0.948476	-1.488373	-0.395510
C37	C	-1.071074	-1.487880	-0.396004
C38	C	-1.070958	-1.629646	-0.534630
C39	C	-0.948351	-1.628964	-0.537051
C40	C	-0.234107	-1.518468	-0.506256
C41	C	-0.116277	-1.518513	-0.506272
C42	C	-0.510509	-1.518441	-0.780252
C43	C	-0.510464	-1.518475	-0.897029
C44	C	-0.510627	-0.792395	-0.506238
C45	C	-0.510622	-0.909172	-0.506226
C46	C	-0.374890	-1.652916	-0.897080
C47	C	-0.307088	-1.720151	-0.951967
C48	C	-0.307049	-1.720176	-1.061689
C49	C	-0.374818	-1.652958	-1.116526
C50	C	-0.442621	-1.585723	-1.061640
C51	C	-0.442655	-1.585707	-0.951915
C52	C	-0.578188	-1.451278	-1.061588
C53	C	-0.578234	-1.451256	-0.951866
C54	C	-0.645957	-1.384059	-1.116426
C55	C	-0.713767	-1.316828	-1.061539
C56	C	-0.713804	-1.316806	-0.951811
C57	C	-0.646037	-1.384021	-0.896980
C58	C	-0.510640	-1.518344	-0.233251
C59	C	-0.510385	-1.518513	-0.116475
H60	H	-0.646379	-1.217985	-0.640341
H61	H	-0.919322	-1.545493	-0.333212
H62	H	-0.768934	-1.262098	-1.106196
C63	C	-0.232551	-1.794090	-0.891645
H64	H	-0.242289	-1.784456	-0.818437
H65	H	-0.161314	-1.778758	-0.909635
H66	H	-0.248083	-1.864679	-0.909639
C67	C	-0.907146	-1.379764	-0.362473
H68	H	-0.862722	-1.352542	-0.415999
H69	H	-0.868025	-1.386033	-0.299247
H70	H	-0.965205	-1.333700	-0.351815
H71	H	-0.374925	-1.652912	-0.807739
H72	H	-1.102347	-1.355647	-0.569113
H73	H	-0.769531	-1.118488	-0.762030
C74	C	-1.109843	-1.378133	-0.363562
H75	H	-1.050666	-1.334269	-0.350211
H76	H	-1.151723	-1.383515	-0.301973
H77	H	-1.151042	-1.348898	-0.418507
C78	C	-0.232279	-1.134050	-0.231219
H79	H	-0.241988	-1.207256	-0.240820
H80	H	-0.247697	-1.116029	-0.160602
H81	H	-0.161070	-1.116092	-0.246735
C82	C	-0.232471	-1.794135	-1.122066
H83	H	-0.192120	-1.834168	-1.073697
H84	H	-0.186264	-1.753977	-1.164874
H85	H	-0.273029	-1.839902	-1.164865
C86	C	-1.112606	-1.666591	-0.641847
H87	H	-1.084312	-1.733794	-0.657464
H88	H	-1.091612	-1.618213	-0.694458
H89	H	-1.187595	-1.670569	-0.639758
H90	H	-0.374772	-1.652976	-1.205867
H91	H	-0.645917	-1.384081	-1.205767
C92	C	-0.788407	-1.242865	-0.891443
H93	H	-0.828768	-1.202851	-0.939820
H94	H	-0.747883	-1.197094	-0.848626
H95	H	-0.834621	-1.283046	-0.848655
H96	H	-1.100736	-1.544310	-0.333296
H97	H	-0.646064	-1.384014	-0.807638
C98	C	-0.909381	-1.325813	-0.562018
H99	H	-0.834255	-1.325177	-0.561782
H100	H	-0.934860	-1.305264	-0.495040
H101	H	-0.934646	-1.278332	-0.613591
C102	C	-0.788899	-0.903739	-0.781256
H103	H	-0.829317	-0.952131	-0.821209
H104	H	-0.748364	-0.860989	-0.827088
H105	H	-0.835059	-0.860886	-0.741021
H106	H	-0.374843	-1.217931	-0.372061
C107	C	-0.908950	-1.659517	-0.647121
H108	H	-0.865569	-1.605098	-0.674189
H109	H	-0.967825	-1.669782	-0.692178
H110	H	-0.869122	-1.722516	-0.642896
H111	H	-0.646392	-0.819857	-0.640386
H112	H	-0.374857	-0.819803	-0.372101
C113	C	-1.111165	-1.462612	-0.698938
H114	H	-1.083214	-1.412841	-0.746877
H115	H	-1.186213	-1.459564	-0.700186
H116	H	-1.088558	-1.530911	-0.718413
H117	H	-0.251692	-0.919303	-0.250407
H118	H	-0.918724	-1.455863	-0.669499
H119	H	-1.099950	-1.689986	-0.475351
C120	C	-0.906973	-1.714775	-0.462792
H121	H	-0.861832	-1.684127	-0.411790
H122	H	-0.868604	-1.765437	-0.501963
H123	H	-0.964969	-1.747688	-0.428782
